version 2
run plain-0-20240531-23:10:56-8860
attr configname plain
attr datetime 20240531-23:10:56
attr experiment plain
attr inifile omnetpp.ini
attr iterationvars ""
attr iterationvarsf ""
attr measurement ""
attr network SimFourScenario
attr processid 8860
attr repetition 0
attr replication #0
attr resultdir results
attr runnumber 0
attr seedset 0
param *.visualizer.osgVisualizer.typename "\"\""
param *.node[*].numApps 1
param *.node[*].app[0].typename "\"erstetvcn.Sim4.SimFourApplication\""
param *.node[*].app[0].interface "\"wlan0\""
param *.node[*].wlan[0].opMode "\"p\""
param *.node[*].wlan[0].radio.typename "\"Ieee80211DimensionalRadio\""
param *.node[*].wlan[0].radio.bandName "\"5.9 GHz\""
param *.node[*].wlan[0].radio.channelNumber 3
param *.node[*].wlan[0].radio.transmitter.power 20mW
param *.node[*].wlan[0].radio.bandwidth "10 MHz"
param *.node[*].wlan[*].radio.antenna.mobility.typename "\"AttachedMobility\""
param *.node[*].wlan[*].radio.antenna.mobility.mobilityModule "\"^.^.^.^.mobility\""
param *.node[*].wlan[*].radio.antenna.mobility.offsetX -2.5m
param *.node[*].wlan[*].radio.antenna.mobility.offsetZ 1.5m
param *.node[*].wlan[*].radio.antenna.mobility.constraintAreaMinX 0m
param *.node[*].wlan[*].radio.antenna.mobility.constraintAreaMaxX 0m
param *.node[*].wlan[*].radio.antenna.mobility.constraintAreaMinY 0m
param *.node[*].wlan[*].radio.antenna.mobility.constraintAreaMaxY 0m
param *.node[*].wlan[*].radio.antenna.mobility.constraintAreaMinZ 0m
param *.node[*].wlan[*].radio.antenna.mobility.constraintAreaMaxZ 0m
param *.node[*].ipv4.configurator.typename "\"HostAutoConfigurator\""
param *.node[*].ipv4.configurator.interfaces "\"wlan0\""
param *.node[*].ipv4.configurator.mcastGroups "\"224.0.0.1\""
param *.node[*].mobility.typename "\"VeinsInetMobility\""
param *.manager.updateInterval 0.1s
param *.manager.host "\"localhost\""
param *.manager.port 9999
param *.manager.autoShutdown true
param *.manager.launchConfig "xmldoc(\"LaSagesse.launchd.xml\")"
param *.manager.moduleType "\"erstetvcn.veins_inet.VeinsInetCar\""

vector 0 SimFourScenario.node[0].wlan[0].radio radioMode:vector ETV
attr interpolationmode sample-hold
attr source radioModeChanged
attr title "Radio mode, vector"
vector 1 SimFourScenario.node[0].wlan[0].radio radioChannel:vector ETV
attr interpolationmode sample-hold
attr source radioChannelChanged
attr title "Radio channel, vector"
vector 2 SimFourScenario.node[0].wlan[0].radio receptionState:vector ETV
attr interpolationmode sample-hold
attr source receptionStateChanged
attr title "Radio reception state, vector"
vector 3 SimFourScenario.node[0].wlan[0].mac.dcf.recoveryProcedure contentionWindowChanged:vector ETV
attr interpolationmode sample-hold
attr title "contention window, vector"
vector 4 SimFourScenario.node[1].wlan[0].radio radioMode:vector ETV
attr interpolationmode sample-hold
attr source radioModeChanged
attr title "Radio mode, vector"
vector 5 SimFourScenario.node[1].wlan[0].radio radioChannel:vector ETV
attr interpolationmode sample-hold
attr source radioChannelChanged
attr title "Radio channel, vector"
vector 6 SimFourScenario.node[1].wlan[0].radio receptionState:vector ETV
attr interpolationmode sample-hold
attr source receptionStateChanged
attr title "Radio reception state, vector"
vector 7 SimFourScenario.node[1].wlan[0].mac.dcf.recoveryProcedure contentionWindowChanged:vector ETV
attr interpolationmode sample-hold
attr title "contention window, vector"
vector 8 SimFourScenario.node[2].wlan[0].radio radioMode:vector ETV
attr interpolationmode sample-hold
attr source radioModeChanged
attr title "Radio mode, vector"
vector 9 SimFourScenario.node[2].wlan[0].radio radioChannel:vector ETV
attr interpolationmode sample-hold
attr source radioChannelChanged
attr title "Radio channel, vector"
vector 10 SimFourScenario.node[2].wlan[0].radio receptionState:vector ETV
attr interpolationmode sample-hold
attr source receptionStateChanged
attr title "Radio reception state, vector"
vector 11 SimFourScenario.node[2].wlan[0].mac.dcf.recoveryProcedure contentionWindowChanged:vector ETV
attr interpolationmode sample-hold
attr title "contention window, vector"
vector 12 SimFourScenario.node[3].wlan[0].radio radioMode:vector ETV
attr interpolationmode sample-hold
attr source radioModeChanged
attr title "Radio mode, vector"
vector 13 SimFourScenario.node[3].wlan[0].radio radioChannel:vector ETV
attr interpolationmode sample-hold
attr source radioChannelChanged
attr title "Radio channel, vector"
vector 14 SimFourScenario.node[3].wlan[0].radio receptionState:vector ETV
attr interpolationmode sample-hold
attr source receptionStateChanged
attr title "Radio reception state, vector"
vector 15 SimFourScenario.node[3].wlan[0].mac.dcf.recoveryProcedure contentionWindowChanged:vector ETV
attr interpolationmode sample-hold
attr title "contention window, vector"
vector 16 SimFourScenario.node[4].wlan[0].radio radioMode:vector ETV
attr interpolationmode sample-hold
attr source radioModeChanged
attr title "Radio mode, vector"
vector 17 SimFourScenario.node[4].wlan[0].radio radioChannel:vector ETV
attr interpolationmode sample-hold
attr source radioChannelChanged
attr title "Radio channel, vector"
vector 18 SimFourScenario.node[4].wlan[0].radio receptionState:vector ETV
attr interpolationmode sample-hold
attr source receptionStateChanged
attr title "Radio reception state, vector"
vector 19 SimFourScenario.node[4].wlan[0].mac.dcf.recoveryProcedure contentionWindowChanged:vector ETV
attr interpolationmode sample-hold
attr title "contention window, vector"
vector 20 SimFourScenario.node[5].wlan[0].radio radioMode:vector ETV
attr interpolationmode sample-hold
attr source radioModeChanged
attr title "Radio mode, vector"
vector 21 SimFourScenario.node[5].wlan[0].radio radioChannel:vector ETV
attr interpolationmode sample-hold
attr source radioChannelChanged
attr title "Radio channel, vector"
vector 22 SimFourScenario.node[5].wlan[0].radio receptionState:vector ETV
attr interpolationmode sample-hold
attr source receptionStateChanged
attr title "Radio reception state, vector"
vector 23 SimFourScenario.node[5].wlan[0].mac.dcf.recoveryProcedure contentionWindowChanged:vector ETV
attr interpolationmode sample-hold
attr title "contention window, vector"
vector 24 SimFourScenario.node[6].wlan[0].radio radioMode:vector ETV
attr interpolationmode sample-hold
attr source radioModeChanged
attr title "Radio mode, vector"
vector 25 SimFourScenario.node[6].wlan[0].radio radioChannel:vector ETV
attr interpolationmode sample-hold
attr source radioChannelChanged
attr title "Radio channel, vector"
vector 26 SimFourScenario.node[6].wlan[0].radio receptionState:vector ETV
attr interpolationmode sample-hold
attr source receptionStateChanged
attr title "Radio reception state, vector"
vector 27 SimFourScenario.node[6].wlan[0].mac.dcf.recoveryProcedure contentionWindowChanged:vector ETV
attr interpolationmode sample-hold
attr title "contention window, vector"
vector 28 SimFourScenario.node[7].wlan[0].radio radioMode:vector ETV
attr interpolationmode sample-hold
attr source radioModeChanged
attr title "Radio mode, vector"
vector 29 SimFourScenario.node[7].wlan[0].radio radioChannel:vector ETV
attr interpolationmode sample-hold
attr source radioChannelChanged
attr title "Radio channel, vector"
vector 30 SimFourScenario.node[7].wlan[0].radio receptionState:vector ETV
attr interpolationmode sample-hold
attr source receptionStateChanged
attr title "Radio reception state, vector"
vector 31 SimFourScenario.node[7].wlan[0].mac.dcf.recoveryProcedure contentionWindowChanged:vector ETV
attr interpolationmode sample-hold
attr title "contention window, vector"
vector 32 SimFourScenario.node[8].wlan[0].radio radioMode:vector ETV
attr interpolationmode sample-hold
attr source radioModeChanged
attr title "Radio mode, vector"
vector 33 SimFourScenario.node[8].wlan[0].radio radioChannel:vector ETV
attr interpolationmode sample-hold
attr source radioChannelChanged
attr title "Radio channel, vector"
vector 34 SimFourScenario.node[8].wlan[0].radio receptionState:vector ETV
attr interpolationmode sample-hold
attr source receptionStateChanged
attr title "Radio reception state, vector"
vector 35 SimFourScenario.node[8].wlan[0].mac.dcf.recoveryProcedure contentionWindowChanged:vector ETV
attr interpolationmode sample-hold
attr title "contention window, vector"
vector 36 SimFourScenario.node[9].wlan[0].radio radioMode:vector ETV
attr interpolationmode sample-hold
attr source radioModeChanged
attr title "Radio mode, vector"
vector 37 SimFourScenario.node[9].wlan[0].radio radioChannel:vector ETV
attr interpolationmode sample-hold
attr source radioChannelChanged
attr title "Radio channel, vector"
vector 38 SimFourScenario.node[9].wlan[0].radio receptionState:vector ETV
attr interpolationmode sample-hold
attr source receptionStateChanged
attr title "Radio reception state, vector"
vector 39 SimFourScenario.node[9].wlan[0].mac.dcf.recoveryProcedure contentionWindowChanged:vector ETV
attr interpolationmode sample-hold
attr title "contention window, vector"
vector 40 SimFourScenario.node[10].wlan[0].radio radioMode:vector ETV
attr interpolationmode sample-hold
attr source radioModeChanged
attr title "Radio mode, vector"
vector 41 SimFourScenario.node[10].wlan[0].radio radioChannel:vector ETV
attr interpolationmode sample-hold
attr source radioChannelChanged
attr title "Radio channel, vector"
vector 42 SimFourScenario.node[10].wlan[0].radio receptionState:vector ETV
attr interpolationmode sample-hold
attr source receptionStateChanged
attr title "Radio reception state, vector"
vector 43 SimFourScenario.node[10].wlan[0].mac.dcf.recoveryProcedure contentionWindowChanged:vector ETV
attr interpolationmode sample-hold
attr title "contention window, vector"
vector 44 SimFourScenario.node[11].wlan[0].radio radioMode:vector ETV
attr interpolationmode sample-hold
attr source radioModeChanged
attr title "Radio mode, vector"
vector 45 SimFourScenario.node[11].wlan[0].radio radioChannel:vector ETV
attr interpolationmode sample-hold
attr source radioChannelChanged
attr title "Radio channel, vector"
vector 46 SimFourScenario.node[11].wlan[0].radio receptionState:vector ETV
attr interpolationmode sample-hold
attr source receptionStateChanged
attr title "Radio reception state, vector"
vector 47 SimFourScenario.node[11].wlan[0].mac.dcf.recoveryProcedure contentionWindowChanged:vector ETV
attr interpolationmode sample-hold
attr title "contention window, vector"
vector 48 SimFourScenario.node[2].app[0] packetSent:vector(packetBytes) ETV
attr interpolationmode none
attr source packetSent
attr title "packets sent, vector(packetBytes)"
vector 49 SimFourScenario.node[2].udp packetSent:vector(packetBytes) ETV
attr interpolationmode none
attr source packetSent
attr title "packets sent, vector(packetBytes)"
vector 50 SimFourScenario.node[2].lo[0].lo rcvdPkFromHl:vector(packetBytes) ETV
attr interpolationmode none
attr source packetReceivedFromUpper
attr title "packets received from higher layer, vector(packetBytes)"
vector 51 SimFourScenario.node[2].lo[0].lo passedUpPk:vector(packetBytes) ETV
attr interpolationmode none
attr source packetSentToUpper
attr title "packets passed to higher layer, vector(packetBytes)"
vector 52 SimFourScenario.node[2].wlan[0].mac packetReceivedFromUpper:vector(packetBytes) ETV
attr interpolationmode none
attr title "packets received from upper layer, vector(packetBytes)"
vector 53 SimFourScenario.node[2].wlan[0].mac.dcf.channelAccess.pendingQueue packetPushed:vector(packetBytes) ETV
attr interpolationmode none
attr title "packet pushed, vector(packetBytes)"
vector 54 SimFourScenario.node[2].wlan[0].mac.dcf.channelAccess.pendingQueue queueLength:vector ETV
attr interpolationmode sample-hold
attr source "count(packetPushed) - count(packetPopped) - count(packetRemoved) - count(packetDropped)"
attr title "queue length, vector"
vector 55 SimFourScenario.node[2].wlan[0].mac.dcf.channelAccess.contention backoffPeriodGenerated:vector ETV
attr interpolationmode none
attr title "backoff periods, vector"
vector 56 SimFourScenario.node[2].wlan[0].mac.dcf.channelAccess.contention backoffActive:vector ETV
attr interpolationmode sample-hold
attr source count(backoffStarted)-count(backoffStopped)
attr title "backoff active, vector"
vector 57 SimFourScenario.node[2].udp packetReceived:vector(packetBytes) ETV
attr interpolationmode none
attr source packetReceived
attr title "packets received, vector(packetBytes)"
vector 58 SimFourScenario.node[2].udp passedUpPk:vector(count) ETV
attr interpolationmode none
attr source packetSentToUpper
attr title "packets passed up, vector(count)"
vector 59 SimFourScenario.node[2].app[0] packetReceived:vector(packetBytes) ETV
attr interpolationmode none
attr source packetReceived
attr title "packets received, vector(packetBytes)"
vector 60 SimFourScenario.node[2].app[0] throughput:vector ETV
attr source throughput(packetReceived)
attr title "throughput, vector"
attr unit bps
vector 61 SimFourScenario.node[2].app[0] rcvdPkLifetime:vector ETV
attr interpolationmode none
attr source dataAge(packetReceived)
attr title "received packet lifetime, vector"
attr unit s
vector 62 SimFourScenario.node[2].wlan[0].mac.dcf.channelAccess.pendingQueue packetPopped:vector(packetBytes) ETV
attr interpolationmode none
attr title "packet popped, vector(packetBytes)"
vector 63 SimFourScenario.node[2].wlan[0].mac.dcf.channelAccess.pendingQueue queueingTime:vector ETV
attr interpolationmode none
attr source queueingTime(packetPopped)
attr title "queueing times, vector"
attr unit s
vector 64 SimFourScenario.node[2].wlan[0].mac.dcf.channelAccess.inProgressFrames queueLength:vector ETV
attr interpolationmode sample-hold
attr source "count(packetEnqueued) - count(packetDequeued)"
attr title "queue length, vector"
vector 65 SimFourScenario.node[2].wlan[0].mac.dcf datarateSelected:vector ETV
attr interpolationmode none
attr title "datarates selected, vector"
vector 66 SimFourScenario.node[2].wlan[0].mac packetSentToLower:vector(packetBytes) ETV
attr interpolationmode none
attr title "packets sent to lower layer, vector(packetBytes)"
vector 67 SimFourScenario.node[2].wlan[0].mac.dcf frameSequenceActive:vector ETV
attr interpolationmode sample-hold
attr source count(frameSequenceStarted)-count(frameSequenceFinished)
attr title "frame sequence active, vector"
vector 68 SimFourScenario.node[2].wlan[0].radio transmissionState:vector ETV
attr interpolationmode sample-hold
attr source transmissionStateChanged
attr title "Radio transmission state, vector"
vector 69 SimFourScenario.node[2].wlan[0].mac.dcf packetSentToPeer:vector(packetBytes) ETV
attr interpolationmode none
attr title "packets sent, vector(packetBytes)"
vector 70 SimFourScenario.node[2].wlan[0].mac.dcf packetSentToPeerMulticast:vector(packetBytes) ETV
attr interpolationmode none
attr source ieee80211Multicast(packetSentToPeer)
attr title "packets sent: multicast, vector(packetBytes)"
vector 71 SimFourScenario.node[2].wlan[0].mac.dcf packetSentToPeerWithoutRetry:vector(packetBytes) ETV
attr interpolationmode none
attr source ieee80211NotRetry(packetSentToPeer)
attr title "packets sent: without retry, vector(packetBytes)"
vector 72 SimFourScenario.node[2].wlan[0].mac.dcf.channelAccess.inProgressFrames queueingTime:vector ETV
attr interpolationmode none
attr source queueingTime(packetDequeued)
attr title "queueing times, vector"
vector 73 SimFourScenario.node[5].wlan[0].mac packetReceivedFromLower:vector(packetBytes) ETV
attr interpolationmode none
attr title "packets received from lower layer, vector(packetBytes)"
vector 74 SimFourScenario.node[5].wlan[0].mac.dcf packetReceivedFromPeer:vector(packetBytes) ETV
attr interpolationmode none
attr title "packets received, vector(packetBytes)"
vector 75 SimFourScenario.node[5].wlan[0].mac.dcf packetReceivedFromPeerMulticast:vector(packetBytes) ETV
attr interpolationmode none
attr source ieee80211Multicast(packetReceivedFromPeer)
attr title "packets received: multicast, vector(packetBytes)"
vector 76 SimFourScenario.node[5].wlan[0].mac.dcf packetReceivedFromPeerWithoutRetry:vector(packetBytes) ETV
attr interpolationmode none
attr source ieee80211NotRetry(packetReceivedFromPeer)
attr title "packets received: without retry, vector(packetBytes)"
vector 77 SimFourScenario.node[5].wlan[0].mac packetSentToUpper:vector(packetBytes) ETV
attr interpolationmode none
attr title "packets sent to upper layer, vector(packetBytes)"
vector 78 SimFourScenario.node[5].udp packetReceived:vector(packetBytes) ETV
attr interpolationmode none
attr source packetReceived
attr title "packets received, vector(packetBytes)"
vector 79 SimFourScenario.node[5].udp passedUpPk:vector(count) ETV
attr interpolationmode none
attr source packetSentToUpper
attr title "packets passed up, vector(count)"
vector 80 SimFourScenario.node[5].app[0] packetReceived:vector(packetBytes) ETV
attr interpolationmode none
attr source packetReceived
attr title "packets received, vector(packetBytes)"
vector 81 SimFourScenario.node[5].app[0] throughput:vector ETV
attr source throughput(packetReceived)
attr title "throughput, vector"
attr unit bps
vector 82 SimFourScenario.node[5].app[0] rcvdPkLifetime:vector ETV
attr interpolationmode none
attr source dataAge(packetReceived)
attr title "received packet lifetime, vector"
attr unit s
vector 83 SimFourScenario.node[5].app[0] packetSent:vector(packetBytes) ETV
attr interpolationmode none
attr source packetSent
attr title "packets sent, vector(packetBytes)"
vector 84 SimFourScenario.node[5].udp packetSent:vector(packetBytes) ETV
attr interpolationmode none
attr source packetSent
attr title "packets sent, vector(packetBytes)"
vector 85 SimFourScenario.node[5].lo[0].lo rcvdPkFromHl:vector(packetBytes) ETV
attr interpolationmode none
attr source packetReceivedFromUpper
attr title "packets received from higher layer, vector(packetBytes)"
vector 86 SimFourScenario.node[5].lo[0].lo passedUpPk:vector(packetBytes) ETV
attr interpolationmode none
attr source packetSentToUpper
attr title "packets passed to higher layer, vector(packetBytes)"
vector 87 SimFourScenario.node[5].wlan[0].mac packetReceivedFromUpper:vector(packetBytes) ETV
attr interpolationmode none
attr title "packets received from upper layer, vector(packetBytes)"
vector 88 SimFourScenario.node[5].wlan[0].mac.dcf.channelAccess.pendingQueue packetPushed:vector(packetBytes) ETV
attr interpolationmode none
attr title "packet pushed, vector(packetBytes)"
vector 89 SimFourScenario.node[5].wlan[0].mac.dcf.channelAccess.pendingQueue queueLength:vector ETV
attr interpolationmode sample-hold
attr source "count(packetPushed) - count(packetPopped) - count(packetRemoved) - count(packetDropped)"
attr title "queue length, vector"
vector 90 SimFourScenario.node[5].wlan[0].mac.dcf.channelAccess.contention backoffPeriodGenerated:vector ETV
attr interpolationmode none
attr title "backoff periods, vector"
vector 91 SimFourScenario.node[5].wlan[0].mac.dcf.channelAccess.contention backoffActive:vector ETV
attr interpolationmode sample-hold
attr source count(backoffStarted)-count(backoffStopped)
attr title "backoff active, vector"
vector 92 SimFourScenario.node[9].wlan[0].mac packetReceivedFromLower:vector(packetBytes) ETV
attr interpolationmode none
attr title "packets received from lower layer, vector(packetBytes)"
vector 93 SimFourScenario.node[9].wlan[0].mac.dcf packetReceivedFromPeer:vector(packetBytes) ETV
attr interpolationmode none
attr title "packets received, vector(packetBytes)"
vector 94 SimFourScenario.node[9].wlan[0].mac.dcf packetReceivedFromPeerMulticast:vector(packetBytes) ETV
attr interpolationmode none
attr source ieee80211Multicast(packetReceivedFromPeer)
attr title "packets received: multicast, vector(packetBytes)"
vector 95 SimFourScenario.node[9].wlan[0].mac.dcf packetReceivedFromPeerWithoutRetry:vector(packetBytes) ETV
attr interpolationmode none
attr source ieee80211NotRetry(packetReceivedFromPeer)
attr title "packets received: without retry, vector(packetBytes)"
vector 96 SimFourScenario.node[9].wlan[0].mac packetSentToUpper:vector(packetBytes) ETV
attr interpolationmode none
attr title "packets sent to upper layer, vector(packetBytes)"
vector 97 SimFourScenario.node[9].udp packetReceived:vector(packetBytes) ETV
attr interpolationmode none
attr source packetReceived
attr title "packets received, vector(packetBytes)"
vector 98 SimFourScenario.node[9].udp passedUpPk:vector(count) ETV
attr interpolationmode none
attr source packetSentToUpper
attr title "packets passed up, vector(count)"
vector 99 SimFourScenario.node[9].app[0] packetReceived:vector(packetBytes) ETV
attr interpolationmode none
attr source packetReceived
attr title "packets received, vector(packetBytes)"
vector 100 SimFourScenario.node[9].app[0] throughput:vector ETV
attr source throughput(packetReceived)
attr title "throughput, vector"
attr unit bps
vector 101 SimFourScenario.node[9].app[0] rcvdPkLifetime:vector ETV
attr interpolationmode none
attr source dataAge(packetReceived)
attr title "received packet lifetime, vector"
attr unit s
vector 102 SimFourScenario.node[9].app[0] packetSent:vector(packetBytes) ETV
attr interpolationmode none
attr source packetSent
attr title "packets sent, vector(packetBytes)"
vector 103 SimFourScenario.node[9].udp packetSent:vector(packetBytes) ETV
attr interpolationmode none
attr source packetSent
attr title "packets sent, vector(packetBytes)"
vector 104 SimFourScenario.node[9].lo[0].lo rcvdPkFromHl:vector(packetBytes) ETV
attr interpolationmode none
attr source packetReceivedFromUpper
attr title "packets received from higher layer, vector(packetBytes)"
vector 105 SimFourScenario.node[9].lo[0].lo passedUpPk:vector(packetBytes) ETV
attr interpolationmode none
attr source packetSentToUpper
attr title "packets passed to higher layer, vector(packetBytes)"
vector 106 SimFourScenario.node[9].wlan[0].mac packetReceivedFromUpper:vector(packetBytes) ETV
attr interpolationmode none
attr title "packets received from upper layer, vector(packetBytes)"
vector 107 SimFourScenario.node[9].wlan[0].mac.dcf.channelAccess.pendingQueue packetPushed:vector(packetBytes) ETV
attr interpolationmode none
attr title "packet pushed, vector(packetBytes)"
vector 108 SimFourScenario.node[9].wlan[0].mac.dcf.channelAccess.pendingQueue queueLength:vector ETV
attr interpolationmode sample-hold
attr source "count(packetPushed) - count(packetPopped) - count(packetRemoved) - count(packetDropped)"
attr title "queue length, vector"
vector 109 SimFourScenario.node[9].wlan[0].mac.dcf.channelAccess.contention backoffPeriodGenerated:vector ETV
attr interpolationmode none
attr title "backoff periods, vector"
vector 110 SimFourScenario.node[9].wlan[0].mac.dcf.channelAccess.contention backoffActive:vector ETV
attr interpolationmode sample-hold
attr source count(backoffStarted)-count(backoffStopped)
attr title "backoff active, vector"
vector 111 SimFourScenario.node[1].wlan[0].mac packetReceivedFromLower:vector(packetBytes) ETV
attr interpolationmode none
attr title "packets received from lower layer, vector(packetBytes)"
vector 112 SimFourScenario.node[1].wlan[0].mac.dcf packetReceivedFromPeer:vector(packetBytes) ETV
attr interpolationmode none
attr title "packets received, vector(packetBytes)"
vector 113 SimFourScenario.node[1].wlan[0].mac.dcf packetReceivedFromPeerMulticast:vector(packetBytes) ETV
attr interpolationmode none
attr source ieee80211Multicast(packetReceivedFromPeer)
attr title "packets received: multicast, vector(packetBytes)"
vector 114 SimFourScenario.node[1].wlan[0].mac.dcf packetReceivedFromPeerWithoutRetry:vector(packetBytes) ETV
attr interpolationmode none
attr source ieee80211NotRetry(packetReceivedFromPeer)
attr title "packets received: without retry, vector(packetBytes)"
vector 115 SimFourScenario.node[1].wlan[0].mac packetSentToUpper:vector(packetBytes) ETV
attr interpolationmode none
attr title "packets sent to upper layer, vector(packetBytes)"
vector 116 SimFourScenario.node[1].udp packetReceived:vector(packetBytes) ETV
attr interpolationmode none
attr source packetReceived
attr title "packets received, vector(packetBytes)"
vector 117 SimFourScenario.node[1].udp passedUpPk:vector(count) ETV
attr interpolationmode none
attr source packetSentToUpper
attr title "packets passed up, vector(count)"
vector 118 SimFourScenario.node[1].app[0] packetReceived:vector(packetBytes) ETV
attr interpolationmode none
attr source packetReceived
attr title "packets received, vector(packetBytes)"
vector 119 SimFourScenario.node[1].app[0] throughput:vector ETV
attr source throughput(packetReceived)
attr title "throughput, vector"
attr unit bps
vector 120 SimFourScenario.node[1].app[0] rcvdPkLifetime:vector ETV
attr interpolationmode none
attr source dataAge(packetReceived)
attr title "received packet lifetime, vector"
attr unit s
vector 121 SimFourScenario.node[1].app[0] packetSent:vector(packetBytes) ETV
attr interpolationmode none
attr source packetSent
attr title "packets sent, vector(packetBytes)"
vector 122 SimFourScenario.node[1].udp packetSent:vector(packetBytes) ETV
attr interpolationmode none
attr source packetSent
attr title "packets sent, vector(packetBytes)"
vector 123 SimFourScenario.node[1].lo[0].lo rcvdPkFromHl:vector(packetBytes) ETV
attr interpolationmode none
attr source packetReceivedFromUpper
attr title "packets received from higher layer, vector(packetBytes)"
vector 124 SimFourScenario.node[1].lo[0].lo passedUpPk:vector(packetBytes) ETV
attr interpolationmode none
attr source packetSentToUpper
attr title "packets passed to higher layer, vector(packetBytes)"
vector 125 SimFourScenario.node[1].wlan[0].mac packetReceivedFromUpper:vector(packetBytes) ETV
attr interpolationmode none
attr title "packets received from upper layer, vector(packetBytes)"
vector 126 SimFourScenario.node[1].wlan[0].mac.dcf.channelAccess.pendingQueue packetPushed:vector(packetBytes) ETV
attr interpolationmode none
attr title "packet pushed, vector(packetBytes)"
vector 127 SimFourScenario.node[1].wlan[0].mac.dcf.channelAccess.pendingQueue queueLength:vector ETV
attr interpolationmode sample-hold
attr source "count(packetPushed) - count(packetPopped) - count(packetRemoved) - count(packetDropped)"
attr title "queue length, vector"
vector 128 SimFourScenario.node[1].wlan[0].mac.dcf.channelAccess.contention backoffPeriodGenerated:vector ETV
attr interpolationmode none
attr title "backoff periods, vector"
vector 129 SimFourScenario.node[1].wlan[0].mac.dcf.channelAccess.contention backoffActive:vector ETV
attr interpolationmode sample-hold
attr source count(backoffStarted)-count(backoffStopped)
attr title "backoff active, vector"
vector 130 SimFourScenario.node[0].wlan[0].mac packetReceivedFromLower:vector(packetBytes) ETV
attr interpolationmode none
attr title "packets received from lower layer, vector(packetBytes)"
vector 131 SimFourScenario.node[0].wlan[0].mac.dcf packetReceivedFromPeer:vector(packetBytes) ETV
attr interpolationmode none
attr title "packets received, vector(packetBytes)"
vector 132 SimFourScenario.node[0].wlan[0].mac.dcf packetReceivedFromPeerMulticast:vector(packetBytes) ETV
attr interpolationmode none
attr source ieee80211Multicast(packetReceivedFromPeer)
attr title "packets received: multicast, vector(packetBytes)"
vector 133 SimFourScenario.node[0].wlan[0].mac.dcf packetReceivedFromPeerWithoutRetry:vector(packetBytes) ETV
attr interpolationmode none
attr source ieee80211NotRetry(packetReceivedFromPeer)
attr title "packets received: without retry, vector(packetBytes)"
vector 134 SimFourScenario.node[0].wlan[0].mac packetSentToUpper:vector(packetBytes) ETV
attr interpolationmode none
attr title "packets sent to upper layer, vector(packetBytes)"
vector 135 SimFourScenario.node[0].udp packetReceived:vector(packetBytes) ETV
attr interpolationmode none
attr source packetReceived
attr title "packets received, vector(packetBytes)"
vector 136 SimFourScenario.node[0].udp passedUpPk:vector(count) ETV
attr interpolationmode none
attr source packetSentToUpper
attr title "packets passed up, vector(count)"
vector 137 SimFourScenario.node[0].app[0] packetReceived:vector(packetBytes) ETV
attr interpolationmode none
attr source packetReceived
attr title "packets received, vector(packetBytes)"
vector 138 SimFourScenario.node[0].app[0] throughput:vector ETV
attr source throughput(packetReceived)
attr title "throughput, vector"
attr unit bps
vector 139 SimFourScenario.node[0].app[0] rcvdPkLifetime:vector ETV
attr interpolationmode none
attr source dataAge(packetReceived)
attr title "received packet lifetime, vector"
attr unit s
vector 140 SimFourScenario.node[0].app[0] packetSent:vector(packetBytes) ETV
attr interpolationmode none
attr source packetSent
attr title "packets sent, vector(packetBytes)"
vector 141 SimFourScenario.node[0].udp packetSent:vector(packetBytes) ETV
attr interpolationmode none
attr source packetSent
attr title "packets sent, vector(packetBytes)"
vector 142 SimFourScenario.node[0].lo[0].lo rcvdPkFromHl:vector(packetBytes) ETV
attr interpolationmode none
attr source packetReceivedFromUpper
attr title "packets received from higher layer, vector(packetBytes)"
vector 143 SimFourScenario.node[0].lo[0].lo passedUpPk:vector(packetBytes) ETV
attr interpolationmode none
attr source packetSentToUpper
attr title "packets passed to higher layer, vector(packetBytes)"
vector 144 SimFourScenario.node[0].wlan[0].mac packetReceivedFromUpper:vector(packetBytes) ETV
attr interpolationmode none
attr title "packets received from upper layer, vector(packetBytes)"
vector 145 SimFourScenario.node[0].wlan[0].mac.dcf.channelAccess.pendingQueue packetPushed:vector(packetBytes) ETV
attr interpolationmode none
attr title "packet pushed, vector(packetBytes)"
vector 146 SimFourScenario.node[0].wlan[0].mac.dcf.channelAccess.pendingQueue queueLength:vector ETV
attr interpolationmode sample-hold
attr source "count(packetPushed) - count(packetPopped) - count(packetRemoved) - count(packetDropped)"
attr title "queue length, vector"
vector 147 SimFourScenario.node[0].wlan[0].mac.dcf.channelAccess.contention backoffPeriodGenerated:vector ETV
attr interpolationmode none
attr title "backoff periods, vector"
vector 148 SimFourScenario.node[0].wlan[0].mac.dcf.channelAccess.contention backoffActive:vector ETV
attr interpolationmode sample-hold
attr source count(backoffStarted)-count(backoffStopped)
attr title "backoff active, vector"
vector 149 SimFourScenario.node[9].wlan[0].mac.dcf.channelAccess.pendingQueue packetPopped:vector(packetBytes) ETV
attr interpolationmode none
attr title "packet popped, vector(packetBytes)"
vector 150 SimFourScenario.node[9].wlan[0].mac.dcf.channelAccess.pendingQueue queueingTime:vector ETV
attr interpolationmode none
attr source queueingTime(packetPopped)
attr title "queueing times, vector"
attr unit s
vector 151 SimFourScenario.node[9].wlan[0].mac.dcf.channelAccess.inProgressFrames queueLength:vector ETV
attr interpolationmode sample-hold
attr source "count(packetEnqueued) - count(packetDequeued)"
attr title "queue length, vector"
vector 152 SimFourScenario.node[9].wlan[0].mac.dcf datarateSelected:vector ETV
attr interpolationmode none
attr title "datarates selected, vector"
vector 153 SimFourScenario.node[9].wlan[0].mac packetSentToLower:vector(packetBytes) ETV
attr interpolationmode none
attr title "packets sent to lower layer, vector(packetBytes)"
vector 154 SimFourScenario.node[9].wlan[0].mac.dcf frameSequenceActive:vector ETV
attr interpolationmode sample-hold
attr source count(frameSequenceStarted)-count(frameSequenceFinished)
attr title "frame sequence active, vector"
vector 155 SimFourScenario.node[9].wlan[0].radio transmissionState:vector ETV
attr interpolationmode sample-hold
attr source transmissionStateChanged
attr title "Radio transmission state, vector"
vector 156 SimFourScenario.node[1].wlan[0].mac.dcf.channelAccess.pendingQueue packetPopped:vector(packetBytes) ETV
attr interpolationmode none
attr title "packet popped, vector(packetBytes)"
vector 157 SimFourScenario.node[1].wlan[0].mac.dcf.channelAccess.pendingQueue queueingTime:vector ETV
attr interpolationmode none
attr source queueingTime(packetPopped)
attr title "queueing times, vector"
attr unit s
vector 158 SimFourScenario.node[1].wlan[0].mac.dcf.channelAccess.inProgressFrames queueLength:vector ETV
attr interpolationmode sample-hold
attr source "count(packetEnqueued) - count(packetDequeued)"
attr title "queue length, vector"
vector 159 SimFourScenario.node[1].wlan[0].mac.dcf datarateSelected:vector ETV
attr interpolationmode none
attr title "datarates selected, vector"
vector 160 SimFourScenario.node[1].wlan[0].mac packetSentToLower:vector(packetBytes) ETV
attr interpolationmode none
attr title "packets sent to lower layer, vector(packetBytes)"
vector 161 SimFourScenario.node[1].wlan[0].mac.dcf frameSequenceActive:vector ETV
attr interpolationmode sample-hold
attr source count(frameSequenceStarted)-count(frameSequenceFinished)
attr title "frame sequence active, vector"
vector 162 SimFourScenario.node[1].wlan[0].radio transmissionState:vector ETV
attr interpolationmode sample-hold
attr source transmissionStateChanged
attr title "Radio transmission state, vector"
vector 163 SimFourScenario.node[9].wlan[0].mac.dcf packetSentToPeer:vector(packetBytes) ETV
attr interpolationmode none
attr title "packets sent, vector(packetBytes)"
vector 164 SimFourScenario.node[9].wlan[0].mac.dcf packetSentToPeerMulticast:vector(packetBytes) ETV
attr interpolationmode none
attr source ieee80211Multicast(packetSentToPeer)
attr title "packets sent: multicast, vector(packetBytes)"
vector 165 SimFourScenario.node[9].wlan[0].mac.dcf packetSentToPeerWithoutRetry:vector(packetBytes) ETV
attr interpolationmode none
attr source ieee80211NotRetry(packetSentToPeer)
attr title "packets sent: without retry, vector(packetBytes)"
vector 166 SimFourScenario.node[9].wlan[0].mac.dcf.channelAccess.inProgressFrames queueingTime:vector ETV
attr interpolationmode none
attr source queueingTime(packetDequeued)
attr title "queueing times, vector"
vector 167 SimFourScenario.node[2].wlan[0].mac packetReceivedFromLower:vector(packetBytes) ETV
attr interpolationmode none
attr title "packets received from lower layer, vector(packetBytes)"
vector 168 SimFourScenario.node[2].wlan[0].mac packetDrop:vector(packetBytes) ETV
attr interpolationmode none
attr source packetDropped
attr title "packet drops, vector(packetBytes)"
vector 169 SimFourScenario.node[2].wlan[0].mac packetDropIncorrectlyReceived:vector(packetBytes) ETV
attr interpolationmode none
attr source packetDropReasonIsIncorrectlyReceived(packetDropped)
attr title "packet drops: incorrectly received, vector(packetBytes)"
vector 170 SimFourScenario.node[1].wlan[0].mac.dcf packetSentToPeer:vector(packetBytes) ETV
attr interpolationmode none
attr title "packets sent, vector(packetBytes)"
vector 171 SimFourScenario.node[1].wlan[0].mac.dcf packetSentToPeerMulticast:vector(packetBytes) ETV
attr interpolationmode none
attr source ieee80211Multicast(packetSentToPeer)
attr title "packets sent: multicast, vector(packetBytes)"
vector 172 SimFourScenario.node[1].wlan[0].mac.dcf packetSentToPeerWithoutRetry:vector(packetBytes) ETV
attr interpolationmode none
attr source ieee80211NotRetry(packetSentToPeer)
attr title "packets sent: without retry, vector(packetBytes)"
vector 173 SimFourScenario.node[1].wlan[0].mac.dcf.channelAccess.inProgressFrames queueingTime:vector ETV
attr interpolationmode none
attr source queueingTime(packetDequeued)
attr title "queueing times, vector"
vector 174 SimFourScenario.node[3].wlan[0].mac packetReceivedFromLower:vector(packetBytes) ETV
attr interpolationmode none
attr title "packets received from lower layer, vector(packetBytes)"
vector 175 SimFourScenario.node[3].wlan[0].mac.dcf packetReceivedFromPeer:vector(packetBytes) ETV
attr interpolationmode none
attr title "packets received, vector(packetBytes)"
vector 176 SimFourScenario.node[3].wlan[0].mac.dcf packetReceivedFromPeerMulticast:vector(packetBytes) ETV
attr interpolationmode none
attr source ieee80211Multicast(packetReceivedFromPeer)
attr title "packets received: multicast, vector(packetBytes)"
vector 177 SimFourScenario.node[3].wlan[0].mac.dcf packetReceivedFromPeerWithoutRetry:vector(packetBytes) ETV
attr interpolationmode none
attr source ieee80211NotRetry(packetReceivedFromPeer)
attr title "packets received: without retry, vector(packetBytes)"
vector 178 SimFourScenario.node[3].wlan[0].mac packetSentToUpper:vector(packetBytes) ETV
attr interpolationmode none
attr title "packets sent to upper layer, vector(packetBytes)"
vector 179 SimFourScenario.node[3].udp packetReceived:vector(packetBytes) ETV
attr interpolationmode none
attr source packetReceived
attr title "packets received, vector(packetBytes)"
vector 180 SimFourScenario.node[3].udp passedUpPk:vector(count) ETV
attr interpolationmode none
attr source packetSentToUpper
attr title "packets passed up, vector(count)"
vector 181 SimFourScenario.node[3].app[0] packetReceived:vector(packetBytes) ETV
attr interpolationmode none
attr source packetReceived
attr title "packets received, vector(packetBytes)"
vector 182 SimFourScenario.node[3].app[0] throughput:vector ETV
attr source throughput(packetReceived)
attr title "throughput, vector"
attr unit bps
vector 183 SimFourScenario.node[3].app[0] rcvdPkLifetime:vector ETV
attr interpolationmode none
attr source dataAge(packetReceived)
attr title "received packet lifetime, vector"
attr unit s
vector 184 SimFourScenario.node[3].app[0] packetSent:vector(packetBytes) ETV
attr interpolationmode none
attr source packetSent
attr title "packets sent, vector(packetBytes)"
vector 185 SimFourScenario.node[3].udp packetSent:vector(packetBytes) ETV
attr interpolationmode none
attr source packetSent
attr title "packets sent, vector(packetBytes)"
vector 186 SimFourScenario.node[3].lo[0].lo rcvdPkFromHl:vector(packetBytes) ETV
attr interpolationmode none
attr source packetReceivedFromUpper
attr title "packets received from higher layer, vector(packetBytes)"
vector 187 SimFourScenario.node[3].lo[0].lo passedUpPk:vector(packetBytes) ETV
attr interpolationmode none
attr source packetSentToUpper
attr title "packets passed to higher layer, vector(packetBytes)"
vector 188 SimFourScenario.node[3].wlan[0].mac packetReceivedFromUpper:vector(packetBytes) ETV
attr interpolationmode none
attr title "packets received from upper layer, vector(packetBytes)"
vector 189 SimFourScenario.node[3].wlan[0].mac.dcf.channelAccess.pendingQueue packetPushed:vector(packetBytes) ETV
attr interpolationmode none
attr title "packet pushed, vector(packetBytes)"
vector 190 SimFourScenario.node[3].wlan[0].mac.dcf.channelAccess.pendingQueue queueLength:vector ETV
attr interpolationmode sample-hold
attr source "count(packetPushed) - count(packetPopped) - count(packetRemoved) - count(packetDropped)"
attr title "queue length, vector"
vector 191 SimFourScenario.node[3].wlan[0].mac.dcf.channelAccess.contention backoffPeriodGenerated:vector ETV
attr interpolationmode none
attr title "backoff periods, vector"
vector 192 SimFourScenario.node[3].wlan[0].mac.dcf.channelAccess.contention backoffActive:vector ETV
attr interpolationmode sample-hold
attr source count(backoffStarted)-count(backoffStopped)
attr title "backoff active, vector"
vector 193 SimFourScenario.node[7].wlan[0].mac packetReceivedFromLower:vector(packetBytes) ETV
attr interpolationmode none
attr title "packets received from lower layer, vector(packetBytes)"
vector 194 SimFourScenario.node[7].wlan[0].mac packetDrop:vector(packetBytes) ETV
attr interpolationmode none
attr source packetDropped
attr title "packet drops, vector(packetBytes)"
vector 195 SimFourScenario.node[7].wlan[0].mac packetDropIncorrectlyReceived:vector(packetBytes) ETV
attr interpolationmode none
attr source packetDropReasonIsIncorrectlyReceived(packetDropped)
attr title "packet drops: incorrectly received, vector(packetBytes)"
vector 196 SimFourScenario.node[10].wlan[0].mac packetReceivedFromLower:vector(packetBytes) ETV
attr interpolationmode none
attr title "packets received from lower layer, vector(packetBytes)"
vector 197 SimFourScenario.node[10].wlan[0].mac packetDrop:vector(packetBytes) ETV
attr interpolationmode none
attr source packetDropped
attr title "packet drops, vector(packetBytes)"
vector 198 SimFourScenario.node[10].wlan[0].mac packetDropIncorrectlyReceived:vector(packetBytes) ETV
attr interpolationmode none
attr source packetDropReasonIsIncorrectlyReceived(packetDropped)
attr title "packet drops: incorrectly received, vector(packetBytes)"
vector 199 SimFourScenario.node[0].wlan[0].mac.dcf.channelAccess.pendingQueue packetPopped:vector(packetBytes) ETV
attr interpolationmode none
attr title "packet popped, vector(packetBytes)"
vector 200 SimFourScenario.node[0].wlan[0].mac.dcf.channelAccess.pendingQueue queueingTime:vector ETV
attr interpolationmode none
attr source queueingTime(packetPopped)
attr title "queueing times, vector"
attr unit s
vector 201 SimFourScenario.node[0].wlan[0].mac.dcf.channelAccess.inProgressFrames queueLength:vector ETV
attr interpolationmode sample-hold
attr source "count(packetEnqueued) - count(packetDequeued)"
attr title "queue length, vector"
vector 202 SimFourScenario.node[0].wlan[0].mac.dcf datarateSelected:vector ETV
attr interpolationmode none
attr title "datarates selected, vector"
vector 203 SimFourScenario.node[0].wlan[0].mac packetSentToLower:vector(packetBytes) ETV
attr interpolationmode none
attr title "packets sent to lower layer, vector(packetBytes)"
vector 204 SimFourScenario.node[0].wlan[0].mac.dcf frameSequenceActive:vector ETV
attr interpolationmode sample-hold
attr source count(frameSequenceStarted)-count(frameSequenceFinished)
attr title "frame sequence active, vector"
vector 205 SimFourScenario.node[0].wlan[0].radio transmissionState:vector ETV
attr interpolationmode sample-hold
attr source transmissionStateChanged
attr title "Radio transmission state, vector"
vector 206 SimFourScenario.node[3].wlan[0].mac.dcf.channelAccess.pendingQueue packetPopped:vector(packetBytes) ETV
attr interpolationmode none
attr title "packet popped, vector(packetBytes)"
vector 207 SimFourScenario.node[3].wlan[0].mac.dcf.channelAccess.pendingQueue queueingTime:vector ETV
attr interpolationmode none
attr source queueingTime(packetPopped)
attr title "queueing times, vector"
attr unit s
vector 208 SimFourScenario.node[3].wlan[0].mac.dcf.channelAccess.inProgressFrames queueLength:vector ETV
attr interpolationmode sample-hold
attr source "count(packetEnqueued) - count(packetDequeued)"
attr title "queue length, vector"
vector 209 SimFourScenario.node[3].wlan[0].mac.dcf datarateSelected:vector ETV
attr interpolationmode none
attr title "datarates selected, vector"
vector 210 SimFourScenario.node[3].wlan[0].mac packetSentToLower:vector(packetBytes) ETV
attr interpolationmode none
attr title "packets sent to lower layer, vector(packetBytes)"
vector 211 SimFourScenario.node[3].wlan[0].mac.dcf frameSequenceActive:vector ETV
attr interpolationmode sample-hold
attr source count(frameSequenceStarted)-count(frameSequenceFinished)
attr title "frame sequence active, vector"
vector 212 SimFourScenario.node[3].wlan[0].radio transmissionState:vector ETV
attr interpolationmode sample-hold
attr source transmissionStateChanged
attr title "Radio transmission state, vector"
vector 213 SimFourScenario.node[0].wlan[0].mac.dcf packetSentToPeer:vector(packetBytes) ETV
attr interpolationmode none
attr title "packets sent, vector(packetBytes)"
vector 214 SimFourScenario.node[0].wlan[0].mac.dcf packetSentToPeerMulticast:vector(packetBytes) ETV
attr interpolationmode none
attr source ieee80211Multicast(packetSentToPeer)
attr title "packets sent: multicast, vector(packetBytes)"
vector 215 SimFourScenario.node[0].wlan[0].mac.dcf packetSentToPeerWithoutRetry:vector(packetBytes) ETV
attr interpolationmode none
attr source ieee80211NotRetry(packetSentToPeer)
attr title "packets sent: without retry, vector(packetBytes)"
vector 216 SimFourScenario.node[0].wlan[0].mac.dcf.channelAccess.inProgressFrames queueingTime:vector ETV
attr interpolationmode none
attr source queueingTime(packetDequeued)
attr title "queueing times, vector"
vector 217 SimFourScenario.node[4].wlan[0].mac packetReceivedFromLower:vector(packetBytes) ETV
attr interpolationmode none
attr title "packets received from lower layer, vector(packetBytes)"
vector 218 SimFourScenario.node[4].wlan[0].mac.dcf packetReceivedFromPeer:vector(packetBytes) ETV
attr interpolationmode none
attr title "packets received, vector(packetBytes)"
vector 219 SimFourScenario.node[4].wlan[0].mac.dcf packetReceivedFromPeerMulticast:vector(packetBytes) ETV
attr interpolationmode none
attr source ieee80211Multicast(packetReceivedFromPeer)
attr title "packets received: multicast, vector(packetBytes)"
vector 220 SimFourScenario.node[4].wlan[0].mac.dcf packetReceivedFromPeerWithoutRetry:vector(packetBytes) ETV
attr interpolationmode none
attr source ieee80211NotRetry(packetReceivedFromPeer)
attr title "packets received: without retry, vector(packetBytes)"
vector 221 SimFourScenario.node[4].wlan[0].mac packetSentToUpper:vector(packetBytes) ETV
attr interpolationmode none
attr title "packets sent to upper layer, vector(packetBytes)"
vector 222 SimFourScenario.node[4].udp packetReceived:vector(packetBytes) ETV
attr interpolationmode none
attr source packetReceived
attr title "packets received, vector(packetBytes)"
vector 223 SimFourScenario.node[4].udp passedUpPk:vector(count) ETV
attr interpolationmode none
attr source packetSentToUpper
attr title "packets passed up, vector(count)"
vector 224 SimFourScenario.node[4].app[0] packetReceived:vector(packetBytes) ETV
attr interpolationmode none
attr source packetReceived
attr title "packets received, vector(packetBytes)"
vector 225 SimFourScenario.node[4].app[0] throughput:vector ETV
attr source throughput(packetReceived)
attr title "throughput, vector"
attr unit bps
vector 226 SimFourScenario.node[4].app[0] rcvdPkLifetime:vector ETV
attr interpolationmode none
attr source dataAge(packetReceived)
attr title "received packet lifetime, vector"
attr unit s
vector 227 SimFourScenario.node[4].app[0] packetSent:vector(packetBytes) ETV
attr interpolationmode none
attr source packetSent
attr title "packets sent, vector(packetBytes)"
vector 228 SimFourScenario.node[4].udp packetSent:vector(packetBytes) ETV
attr interpolationmode none
attr source packetSent
attr title "packets sent, vector(packetBytes)"
vector 229 SimFourScenario.node[4].lo[0].lo rcvdPkFromHl:vector(packetBytes) ETV
attr interpolationmode none
attr source packetReceivedFromUpper
attr title "packets received from higher layer, vector(packetBytes)"
vector 230 SimFourScenario.node[4].lo[0].lo passedUpPk:vector(packetBytes) ETV
attr interpolationmode none
attr source packetSentToUpper
attr title "packets passed to higher layer, vector(packetBytes)"
vector 231 SimFourScenario.node[4].wlan[0].mac packetReceivedFromUpper:vector(packetBytes) ETV
attr interpolationmode none
attr title "packets received from upper layer, vector(packetBytes)"
vector 232 SimFourScenario.node[4].wlan[0].mac.dcf.channelAccess.pendingQueue packetPushed:vector(packetBytes) ETV
attr interpolationmode none
attr title "packet pushed, vector(packetBytes)"
vector 233 SimFourScenario.node[4].wlan[0].mac.dcf.channelAccess.pendingQueue queueLength:vector ETV
attr interpolationmode sample-hold
attr source "count(packetPushed) - count(packetPopped) - count(packetRemoved) - count(packetDropped)"
attr title "queue length, vector"
vector 234 SimFourScenario.node[4].wlan[0].mac.dcf.channelAccess.contention backoffPeriodGenerated:vector ETV
attr interpolationmode none
attr title "backoff periods, vector"
vector 235 SimFourScenario.node[4].wlan[0].mac.dcf.channelAccess.contention backoffActive:vector ETV
attr interpolationmode sample-hold
attr source count(backoffStarted)-count(backoffStopped)
attr title "backoff active, vector"
vector 236 SimFourScenario.node[6].wlan[0].mac packetReceivedFromLower:vector(packetBytes) ETV
attr interpolationmode none
attr title "packets received from lower layer, vector(packetBytes)"
vector 237 SimFourScenario.node[6].wlan[0].mac.dcf packetReceivedFromPeer:vector(packetBytes) ETV
attr interpolationmode none
attr title "packets received, vector(packetBytes)"
vector 238 SimFourScenario.node[6].wlan[0].mac.dcf packetReceivedFromPeerMulticast:vector(packetBytes) ETV
attr interpolationmode none
attr source ieee80211Multicast(packetReceivedFromPeer)
attr title "packets received: multicast, vector(packetBytes)"
vector 239 SimFourScenario.node[6].wlan[0].mac.dcf packetReceivedFromPeerWithoutRetry:vector(packetBytes) ETV
attr interpolationmode none
attr source ieee80211NotRetry(packetReceivedFromPeer)
attr title "packets received: without retry, vector(packetBytes)"
vector 240 SimFourScenario.node[6].wlan[0].mac packetSentToUpper:vector(packetBytes) ETV
attr interpolationmode none
attr title "packets sent to upper layer, vector(packetBytes)"
vector 241 SimFourScenario.node[6].udp packetReceived:vector(packetBytes) ETV
attr interpolationmode none
attr source packetReceived
attr title "packets received, vector(packetBytes)"
vector 242 SimFourScenario.node[6].udp passedUpPk:vector(count) ETV
attr interpolationmode none
attr source packetSentToUpper
attr title "packets passed up, vector(count)"
vector 243 SimFourScenario.node[6].app[0] packetReceived:vector(packetBytes) ETV
attr interpolationmode none
attr source packetReceived
attr title "packets received, vector(packetBytes)"
vector 244 SimFourScenario.node[6].app[0] throughput:vector ETV
attr source throughput(packetReceived)
attr title "throughput, vector"
attr unit bps
vector 245 SimFourScenario.node[6].app[0] rcvdPkLifetime:vector ETV
attr interpolationmode none
attr source dataAge(packetReceived)
attr title "received packet lifetime, vector"
attr unit s
vector 246 SimFourScenario.node[6].app[0] packetSent:vector(packetBytes) ETV
attr interpolationmode none
attr source packetSent
attr title "packets sent, vector(packetBytes)"
vector 247 SimFourScenario.node[6].udp packetSent:vector(packetBytes) ETV
attr interpolationmode none
attr source packetSent
attr title "packets sent, vector(packetBytes)"
vector 248 SimFourScenario.node[6].lo[0].lo rcvdPkFromHl:vector(packetBytes) ETV
attr interpolationmode none
attr source packetReceivedFromUpper
attr title "packets received from higher layer, vector(packetBytes)"
vector 249 SimFourScenario.node[6].lo[0].lo passedUpPk:vector(packetBytes) ETV
attr interpolationmode none
attr source packetSentToUpper
attr title "packets passed to higher layer, vector(packetBytes)"
vector 250 SimFourScenario.node[6].wlan[0].mac packetReceivedFromUpper:vector(packetBytes) ETV
attr interpolationmode none
attr title "packets received from upper layer, vector(packetBytes)"
vector 251 SimFourScenario.node[6].wlan[0].mac.dcf.channelAccess.pendingQueue packetPushed:vector(packetBytes) ETV
attr interpolationmode none
attr title "packet pushed, vector(packetBytes)"
vector 252 SimFourScenario.node[6].wlan[0].mac.dcf.channelAccess.pendingQueue queueLength:vector ETV
attr interpolationmode sample-hold
attr source "count(packetPushed) - count(packetPopped) - count(packetRemoved) - count(packetDropped)"
attr title "queue length, vector"
vector 253 SimFourScenario.node[6].wlan[0].mac.dcf.channelAccess.contention backoffPeriodGenerated:vector ETV
attr interpolationmode none
attr title "backoff periods, vector"
vector 254 SimFourScenario.node[6].wlan[0].mac.dcf.channelAccess.contention backoffActive:vector ETV
attr interpolationmode sample-hold
attr source count(backoffStarted)-count(backoffStopped)
attr title "backoff active, vector"
vector 255 SimFourScenario.node[8].wlan[0].mac packetReceivedFromLower:vector(packetBytes) ETV
attr interpolationmode none
attr title "packets received from lower layer, vector(packetBytes)"
vector 256 SimFourScenario.node[8].wlan[0].mac packetDrop:vector(packetBytes) ETV
attr interpolationmode none
attr source packetDropped
attr title "packet drops, vector(packetBytes)"
vector 257 SimFourScenario.node[8].wlan[0].mac packetDropIncorrectlyReceived:vector(packetBytes) ETV
attr interpolationmode none
attr source packetDropReasonIsIncorrectlyReceived(packetDropped)
attr title "packet drops: incorrectly received, vector(packetBytes)"
vector 258 SimFourScenario.node[11].wlan[0].mac packetReceivedFromLower:vector(packetBytes) ETV
attr interpolationmode none
attr title "packets received from lower layer, vector(packetBytes)"
vector 259 SimFourScenario.node[11].wlan[0].mac packetDrop:vector(packetBytes) ETV
attr interpolationmode none
attr source packetDropped
attr title "packet drops, vector(packetBytes)"
vector 260 SimFourScenario.node[11].wlan[0].mac packetDropIncorrectlyReceived:vector(packetBytes) ETV
attr interpolationmode none
attr source packetDropReasonIsIncorrectlyReceived(packetDropped)
attr title "packet drops: incorrectly received, vector(packetBytes)"
vector 261 SimFourScenario.node[3].wlan[0].mac.dcf packetSentToPeer:vector(packetBytes) ETV
attr interpolationmode none
attr title "packets sent, vector(packetBytes)"
vector 262 SimFourScenario.node[3].wlan[0].mac.dcf packetSentToPeerMulticast:vector(packetBytes) ETV
attr interpolationmode none
attr source ieee80211Multicast(packetSentToPeer)
attr title "packets sent: multicast, vector(packetBytes)"
vector 263 SimFourScenario.node[3].wlan[0].mac.dcf packetSentToPeerWithoutRetry:vector(packetBytes) ETV
attr interpolationmode none
attr source ieee80211NotRetry(packetSentToPeer)
attr title "packets sent: without retry, vector(packetBytes)"
vector 264 SimFourScenario.node[3].wlan[0].mac.dcf.channelAccess.inProgressFrames queueingTime:vector ETV
attr interpolationmode none
attr source queueingTime(packetDequeued)
attr title "queueing times, vector"
vector 265 SimFourScenario.node[7].wlan[0].mac.dcf packetReceivedFromPeer:vector(packetBytes) ETV
attr interpolationmode none
attr title "packets received, vector(packetBytes)"
vector 266 SimFourScenario.node[7].wlan[0].mac.dcf packetReceivedFromPeerMulticast:vector(packetBytes) ETV
attr interpolationmode none
attr source ieee80211Multicast(packetReceivedFromPeer)
attr title "packets received: multicast, vector(packetBytes)"
vector 267 SimFourScenario.node[7].wlan[0].mac.dcf packetReceivedFromPeerWithoutRetry:vector(packetBytes) ETV
attr interpolationmode none
attr source ieee80211NotRetry(packetReceivedFromPeer)
attr title "packets received: without retry, vector(packetBytes)"
vector 268 SimFourScenario.node[7].wlan[0].mac packetSentToUpper:vector(packetBytes) ETV
attr interpolationmode none
attr title "packets sent to upper layer, vector(packetBytes)"
vector 269 SimFourScenario.node[7].udp packetReceived:vector(packetBytes) ETV
attr interpolationmode none
attr source packetReceived
attr title "packets received, vector(packetBytes)"
vector 270 SimFourScenario.node[7].udp passedUpPk:vector(count) ETV
attr interpolationmode none
attr source packetSentToUpper
attr title "packets passed up, vector(count)"
vector 271 SimFourScenario.node[7].app[0] packetReceived:vector(packetBytes) ETV
attr interpolationmode none
attr source packetReceived
attr title "packets received, vector(packetBytes)"
vector 272 SimFourScenario.node[7].app[0] throughput:vector ETV
attr source throughput(packetReceived)
attr title "throughput, vector"
attr unit bps
vector 273 SimFourScenario.node[7].app[0] rcvdPkLifetime:vector ETV
attr interpolationmode none
attr source dataAge(packetReceived)
attr title "received packet lifetime, vector"
attr unit s
vector 274 SimFourScenario.node[7].app[0] packetSent:vector(packetBytes) ETV
attr interpolationmode none
attr source packetSent
attr title "packets sent, vector(packetBytes)"
vector 275 SimFourScenario.node[7].udp packetSent:vector(packetBytes) ETV
attr interpolationmode none
attr source packetSent
attr title "packets sent, vector(packetBytes)"
vector 276 SimFourScenario.node[7].lo[0].lo rcvdPkFromHl:vector(packetBytes) ETV
attr interpolationmode none
attr source packetReceivedFromUpper
attr title "packets received from higher layer, vector(packetBytes)"
vector 277 SimFourScenario.node[7].lo[0].lo passedUpPk:vector(packetBytes) ETV
attr interpolationmode none
attr source packetSentToUpper
attr title "packets passed to higher layer, vector(packetBytes)"
vector 278 SimFourScenario.node[7].wlan[0].mac packetReceivedFromUpper:vector(packetBytes) ETV
attr interpolationmode none
attr title "packets received from upper layer, vector(packetBytes)"
vector 279 SimFourScenario.node[7].wlan[0].mac.dcf.channelAccess.pendingQueue packetPushed:vector(packetBytes) ETV
attr interpolationmode none
attr title "packet pushed, vector(packetBytes)"
vector 280 SimFourScenario.node[7].wlan[0].mac.dcf.channelAccess.pendingQueue queueLength:vector ETV
attr interpolationmode sample-hold
attr source "count(packetPushed) - count(packetPopped) - count(packetRemoved) - count(packetDropped)"
attr title "queue length, vector"
vector 281 SimFourScenario.node[7].wlan[0].mac.dcf.channelAccess.contention backoffPeriodGenerated:vector ETV
attr interpolationmode none
attr title "backoff periods, vector"
vector 282 SimFourScenario.node[7].wlan[0].mac.dcf.channelAccess.contention backoffActive:vector ETV
attr interpolationmode sample-hold
attr source count(backoffStarted)-count(backoffStopped)
attr title "backoff active, vector"
vector 283 SimFourScenario.node[10].wlan[0].mac.dcf packetReceivedFromPeer:vector(packetBytes) ETV
attr interpolationmode none
attr title "packets received, vector(packetBytes)"
vector 284 SimFourScenario.node[10].wlan[0].mac.dcf packetReceivedFromPeerMulticast:vector(packetBytes) ETV
attr interpolationmode none
attr source ieee80211Multicast(packetReceivedFromPeer)
attr title "packets received: multicast, vector(packetBytes)"
vector 285 SimFourScenario.node[10].wlan[0].mac.dcf packetReceivedFromPeerWithoutRetry:vector(packetBytes) ETV
attr interpolationmode none
attr source ieee80211NotRetry(packetReceivedFromPeer)
attr title "packets received: without retry, vector(packetBytes)"
vector 286 SimFourScenario.node[10].wlan[0].mac packetSentToUpper:vector(packetBytes) ETV
attr interpolationmode none
attr title "packets sent to upper layer, vector(packetBytes)"
vector 287 SimFourScenario.node[10].udp packetReceived:vector(packetBytes) ETV
attr interpolationmode none
attr source packetReceived
attr title "packets received, vector(packetBytes)"
vector 288 SimFourScenario.node[10].udp passedUpPk:vector(count) ETV
attr interpolationmode none
attr source packetSentToUpper
attr title "packets passed up, vector(count)"
vector 289 SimFourScenario.node[10].app[0] packetReceived:vector(packetBytes) ETV
attr interpolationmode none
attr source packetReceived
attr title "packets received, vector(packetBytes)"
vector 290 SimFourScenario.node[10].app[0] throughput:vector ETV
attr source throughput(packetReceived)
attr title "throughput, vector"
attr unit bps
vector 291 SimFourScenario.node[10].app[0] rcvdPkLifetime:vector ETV
attr interpolationmode none
attr source dataAge(packetReceived)
attr title "received packet lifetime, vector"
attr unit s
vector 292 SimFourScenario.node[10].app[0] packetSent:vector(packetBytes) ETV
attr interpolationmode none
attr source packetSent
attr title "packets sent, vector(packetBytes)"
vector 293 SimFourScenario.node[10].udp packetSent:vector(packetBytes) ETV
attr interpolationmode none
attr source packetSent
attr title "packets sent, vector(packetBytes)"
vector 294 SimFourScenario.node[10].lo[0].lo rcvdPkFromHl:vector(packetBytes) ETV
attr interpolationmode none
attr source packetReceivedFromUpper
attr title "packets received from higher layer, vector(packetBytes)"
vector 295 SimFourScenario.node[10].lo[0].lo passedUpPk:vector(packetBytes) ETV
attr interpolationmode none
attr source packetSentToUpper
attr title "packets passed to higher layer, vector(packetBytes)"
vector 296 SimFourScenario.node[10].wlan[0].mac packetReceivedFromUpper:vector(packetBytes) ETV
attr interpolationmode none
attr title "packets received from upper layer, vector(packetBytes)"
vector 297 SimFourScenario.node[10].wlan[0].mac.dcf.channelAccess.pendingQueue packetPushed:vector(packetBytes) ETV
attr interpolationmode none
attr title "packet pushed, vector(packetBytes)"
vector 298 SimFourScenario.node[10].wlan[0].mac.dcf.channelAccess.pendingQueue queueLength:vector ETV
attr interpolationmode sample-hold
attr source "count(packetPushed) - count(packetPopped) - count(packetRemoved) - count(packetDropped)"
attr title "queue length, vector"
vector 299 SimFourScenario.node[10].wlan[0].mac.dcf.channelAccess.contention backoffPeriodGenerated:vector ETV
attr interpolationmode none
attr title "backoff periods, vector"
vector 300 SimFourScenario.node[10].wlan[0].mac.dcf.channelAccess.contention backoffActive:vector ETV
attr interpolationmode sample-hold
attr source count(backoffStarted)-count(backoffStopped)
attr title "backoff active, vector"
vector 301 SimFourScenario.node[4].wlan[0].mac.dcf.channelAccess.pendingQueue packetPopped:vector(packetBytes) ETV
attr interpolationmode none
attr title "packet popped, vector(packetBytes)"
vector 302 SimFourScenario.node[4].wlan[0].mac.dcf.channelAccess.pendingQueue queueingTime:vector ETV
attr interpolationmode none
attr source queueingTime(packetPopped)
attr title "queueing times, vector"
attr unit s
vector 303 SimFourScenario.node[4].wlan[0].mac.dcf.channelAccess.inProgressFrames queueLength:vector ETV
attr interpolationmode sample-hold
attr source "count(packetEnqueued) - count(packetDequeued)"
attr title "queue length, vector"
vector 304 SimFourScenario.node[4].wlan[0].mac.dcf datarateSelected:vector ETV
attr interpolationmode none
attr title "datarates selected, vector"
vector 305 SimFourScenario.node[4].wlan[0].mac packetSentToLower:vector(packetBytes) ETV
attr interpolationmode none
attr title "packets sent to lower layer, vector(packetBytes)"
vector 306 SimFourScenario.node[4].wlan[0].mac.dcf frameSequenceActive:vector ETV
attr interpolationmode sample-hold
attr source count(frameSequenceStarted)-count(frameSequenceFinished)
attr title "frame sequence active, vector"
vector 307 SimFourScenario.node[4].wlan[0].radio transmissionState:vector ETV
attr interpolationmode sample-hold
attr source transmissionStateChanged
attr title "Radio transmission state, vector"
vector 308 SimFourScenario.node[5].wlan[0].mac.dcf.channelAccess.pendingQueue packetPopped:vector(packetBytes) ETV
attr interpolationmode none
attr title "packet popped, vector(packetBytes)"
vector 309 SimFourScenario.node[5].wlan[0].mac.dcf.channelAccess.pendingQueue queueingTime:vector ETV
attr interpolationmode none
attr source queueingTime(packetPopped)
attr title "queueing times, vector"
attr unit s
vector 310 SimFourScenario.node[5].wlan[0].mac.dcf.channelAccess.inProgressFrames queueLength:vector ETV
attr interpolationmode sample-hold
attr source "count(packetEnqueued) - count(packetDequeued)"
attr title "queue length, vector"
vector 311 SimFourScenario.node[5].wlan[0].mac.dcf datarateSelected:vector ETV
attr interpolationmode none
attr title "datarates selected, vector"
vector 312 SimFourScenario.node[5].wlan[0].mac packetSentToLower:vector(packetBytes) ETV
attr interpolationmode none
attr title "packets sent to lower layer, vector(packetBytes)"
vector 313 SimFourScenario.node[5].wlan[0].mac.dcf frameSequenceActive:vector ETV
attr interpolationmode sample-hold
attr source count(frameSequenceStarted)-count(frameSequenceFinished)
attr title "frame sequence active, vector"
vector 314 SimFourScenario.node[5].wlan[0].radio transmissionState:vector ETV
attr interpolationmode sample-hold
attr source transmissionStateChanged
attr title "Radio transmission state, vector"
vector 315 SimFourScenario.node[7].wlan[0].mac.dcf.channelAccess.pendingQueue packetPopped:vector(packetBytes) ETV
attr interpolationmode none
attr title "packet popped, vector(packetBytes)"
vector 316 SimFourScenario.node[7].wlan[0].mac.dcf.channelAccess.pendingQueue queueingTime:vector ETV
attr interpolationmode none
attr source queueingTime(packetPopped)
attr title "queueing times, vector"
attr unit s
vector 317 SimFourScenario.node[7].wlan[0].mac.dcf.channelAccess.inProgressFrames queueLength:vector ETV
attr interpolationmode sample-hold
attr source "count(packetEnqueued) - count(packetDequeued)"
attr title "queue length, vector"
vector 318 SimFourScenario.node[7].wlan[0].mac.dcf datarateSelected:vector ETV
attr interpolationmode none
attr title "datarates selected, vector"
vector 319 SimFourScenario.node[7].wlan[0].mac packetSentToLower:vector(packetBytes) ETV
attr interpolationmode none
attr title "packets sent to lower layer, vector(packetBytes)"
vector 320 SimFourScenario.node[7].wlan[0].mac.dcf frameSequenceActive:vector ETV
attr interpolationmode sample-hold
attr source count(frameSequenceStarted)-count(frameSequenceFinished)
attr title "frame sequence active, vector"
vector 321 SimFourScenario.node[7].wlan[0].radio transmissionState:vector ETV
attr interpolationmode sample-hold
attr source transmissionStateChanged
attr title "Radio transmission state, vector"
vector 322 SimFourScenario.node[4].wlan[0].mac.dcf packetSentToPeer:vector(packetBytes) ETV
attr interpolationmode none
attr title "packets sent, vector(packetBytes)"
vector 323 SimFourScenario.node[4].wlan[0].mac.dcf packetSentToPeerMulticast:vector(packetBytes) ETV
attr interpolationmode none
attr source ieee80211Multicast(packetSentToPeer)
attr title "packets sent: multicast, vector(packetBytes)"
vector 324 SimFourScenario.node[4].wlan[0].mac.dcf packetSentToPeerWithoutRetry:vector(packetBytes) ETV
attr interpolationmode none
attr source ieee80211NotRetry(packetSentToPeer)
attr title "packets sent: without retry, vector(packetBytes)"
vector 325 SimFourScenario.node[4].wlan[0].mac.dcf.channelAccess.inProgressFrames queueingTime:vector ETV
attr interpolationmode none
attr source queueingTime(packetDequeued)
attr title "queueing times, vector"
vector 326 SimFourScenario.node[5].wlan[0].mac.dcf packetSentToPeer:vector(packetBytes) ETV
attr interpolationmode none
attr title "packets sent, vector(packetBytes)"
vector 327 SimFourScenario.node[5].wlan[0].mac.dcf packetSentToPeerMulticast:vector(packetBytes) ETV
attr interpolationmode none
attr source ieee80211Multicast(packetSentToPeer)
attr title "packets sent: multicast, vector(packetBytes)"
vector 328 SimFourScenario.node[5].wlan[0].mac.dcf packetSentToPeerWithoutRetry:vector(packetBytes) ETV
attr interpolationmode none
attr source ieee80211NotRetry(packetSentToPeer)
attr title "packets sent: without retry, vector(packetBytes)"
vector 329 SimFourScenario.node[5].wlan[0].mac.dcf.channelAccess.inProgressFrames queueingTime:vector ETV
attr interpolationmode none
attr source queueingTime(packetDequeued)
attr title "queueing times, vector"
vector 330 SimFourScenario.node[7].wlan[0].mac.dcf packetSentToPeer:vector(packetBytes) ETV
attr interpolationmode none
attr title "packets sent, vector(packetBytes)"
vector 331 SimFourScenario.node[7].wlan[0].mac.dcf packetSentToPeerMulticast:vector(packetBytes) ETV
attr interpolationmode none
attr source ieee80211Multicast(packetSentToPeer)
attr title "packets sent: multicast, vector(packetBytes)"
vector 332 SimFourScenario.node[7].wlan[0].mac.dcf packetSentToPeerWithoutRetry:vector(packetBytes) ETV
attr interpolationmode none
attr source ieee80211NotRetry(packetSentToPeer)
attr title "packets sent: without retry, vector(packetBytes)"
vector 333 SimFourScenario.node[7].wlan[0].mac.dcf.channelAccess.inProgressFrames queueingTime:vector ETV
attr interpolationmode none
attr source queueingTime(packetDequeued)
attr title "queueing times, vector"
vector 334 SimFourScenario.node[3].wlan[0].mac packetDrop:vector(packetBytes) ETV
attr interpolationmode none
attr source packetDropped
attr title "packet drops, vector(packetBytes)"
vector 335 SimFourScenario.node[3].wlan[0].mac packetDropIncorrectlyReceived:vector(packetBytes) ETV
attr interpolationmode none
attr source packetDropReasonIsIncorrectlyReceived(packetDropped)
attr title "packet drops: incorrectly received, vector(packetBytes)"
vector 336 SimFourScenario.node[1].wlan[0].mac packetDrop:vector(packetBytes) ETV
attr interpolationmode none
attr source packetDropped
attr title "packet drops, vector(packetBytes)"
vector 337 SimFourScenario.node[1].wlan[0].mac packetDropIncorrectlyReceived:vector(packetBytes) ETV
attr interpolationmode none
attr source packetDropReasonIsIncorrectlyReceived(packetDropped)
attr title "packet drops: incorrectly received, vector(packetBytes)"
vector 338 SimFourScenario.node[6].wlan[0].mac.dcf.channelAccess.pendingQueue packetPopped:vector(packetBytes) ETV
attr interpolationmode none
attr title "packet popped, vector(packetBytes)"
vector 339 SimFourScenario.node[6].wlan[0].mac.dcf.channelAccess.pendingQueue queueingTime:vector ETV
attr interpolationmode none
attr source queueingTime(packetPopped)
attr title "queueing times, vector"
attr unit s
vector 340 SimFourScenario.node[6].wlan[0].mac.dcf.channelAccess.inProgressFrames queueLength:vector ETV
attr interpolationmode sample-hold
attr source "count(packetEnqueued) - count(packetDequeued)"
attr title "queue length, vector"
vector 341 SimFourScenario.node[6].wlan[0].mac.dcf datarateSelected:vector ETV
attr interpolationmode none
attr title "datarates selected, vector"
vector 342 SimFourScenario.node[6].wlan[0].mac packetSentToLower:vector(packetBytes) ETV
attr interpolationmode none
attr title "packets sent to lower layer, vector(packetBytes)"
vector 343 SimFourScenario.node[6].wlan[0].mac.dcf frameSequenceActive:vector ETV
attr interpolationmode sample-hold
attr source count(frameSequenceStarted)-count(frameSequenceFinished)
attr title "frame sequence active, vector"
vector 344 SimFourScenario.node[6].wlan[0].radio transmissionState:vector ETV
attr interpolationmode sample-hold
attr source transmissionStateChanged
attr title "Radio transmission state, vector"
vector 345 SimFourScenario.node[10].wlan[0].mac.dcf.channelAccess.pendingQueue packetPopped:vector(packetBytes) ETV
attr interpolationmode none
attr title "packet popped, vector(packetBytes)"
vector 346 SimFourScenario.node[10].wlan[0].mac.dcf.channelAccess.pendingQueue queueingTime:vector ETV
attr interpolationmode none
attr source queueingTime(packetPopped)
attr title "queueing times, vector"
attr unit s
vector 347 SimFourScenario.node[10].wlan[0].mac.dcf.channelAccess.inProgressFrames queueLength:vector ETV
attr interpolationmode sample-hold
attr source "count(packetEnqueued) - count(packetDequeued)"
attr title "queue length, vector"
vector 348 SimFourScenario.node[10].wlan[0].mac.dcf datarateSelected:vector ETV
attr interpolationmode none
attr title "datarates selected, vector"
vector 349 SimFourScenario.node[10].wlan[0].mac packetSentToLower:vector(packetBytes) ETV
attr interpolationmode none
attr title "packets sent to lower layer, vector(packetBytes)"
vector 350 SimFourScenario.node[10].wlan[0].mac.dcf frameSequenceActive:vector ETV
attr interpolationmode sample-hold
attr source count(frameSequenceStarted)-count(frameSequenceFinished)
attr title "frame sequence active, vector"
vector 351 SimFourScenario.node[10].wlan[0].radio transmissionState:vector ETV
attr interpolationmode sample-hold
attr source transmissionStateChanged
attr title "Radio transmission state, vector"
vector 352 SimFourScenario.node[6].wlan[0].mac.dcf packetSentToPeer:vector(packetBytes) ETV
attr interpolationmode none
attr title "packets sent, vector(packetBytes)"
vector 353 SimFourScenario.node[6].wlan[0].mac.dcf packetSentToPeerMulticast:vector(packetBytes) ETV
attr interpolationmode none
attr source ieee80211Multicast(packetSentToPeer)
attr title "packets sent: multicast, vector(packetBytes)"
vector 354 SimFourScenario.node[6].wlan[0].mac.dcf packetSentToPeerWithoutRetry:vector(packetBytes) ETV
attr interpolationmode none
attr source ieee80211NotRetry(packetSentToPeer)
attr title "packets sent: without retry, vector(packetBytes)"
vector 355 SimFourScenario.node[6].wlan[0].mac.dcf.channelAccess.inProgressFrames queueingTime:vector ETV
attr interpolationmode none
attr source queueingTime(packetDequeued)
attr title "queueing times, vector"
vector 356 SimFourScenario.node[8].wlan[0].mac.dcf packetReceivedFromPeer:vector(packetBytes) ETV
attr interpolationmode none
attr title "packets received, vector(packetBytes)"
vector 357 SimFourScenario.node[8].wlan[0].mac.dcf packetReceivedFromPeerMulticast:vector(packetBytes) ETV
attr interpolationmode none
attr source ieee80211Multicast(packetReceivedFromPeer)
attr title "packets received: multicast, vector(packetBytes)"
vector 358 SimFourScenario.node[8].wlan[0].mac.dcf packetReceivedFromPeerWithoutRetry:vector(packetBytes) ETV
attr interpolationmode none
attr source ieee80211NotRetry(packetReceivedFromPeer)
attr title "packets received: without retry, vector(packetBytes)"
vector 359 SimFourScenario.node[8].wlan[0].mac packetSentToUpper:vector(packetBytes) ETV
attr interpolationmode none
attr title "packets sent to upper layer, vector(packetBytes)"
vector 360 SimFourScenario.node[8].udp packetReceived:vector(packetBytes) ETV
attr interpolationmode none
attr source packetReceived
attr title "packets received, vector(packetBytes)"
vector 361 SimFourScenario.node[8].udp passedUpPk:vector(count) ETV
attr interpolationmode none
attr source packetSentToUpper
attr title "packets passed up, vector(count)"
vector 362 SimFourScenario.node[8].app[0] packetReceived:vector(packetBytes) ETV
attr interpolationmode none
attr source packetReceived
attr title "packets received, vector(packetBytes)"
vector 363 SimFourScenario.node[8].app[0] throughput:vector ETV
attr source throughput(packetReceived)
attr title "throughput, vector"
attr unit bps
vector 364 SimFourScenario.node[8].app[0] rcvdPkLifetime:vector ETV
attr interpolationmode none
attr source dataAge(packetReceived)
attr title "received packet lifetime, vector"
attr unit s
vector 365 SimFourScenario.node[8].app[0] packetSent:vector(packetBytes) ETV
attr interpolationmode none
attr source packetSent
attr title "packets sent, vector(packetBytes)"
vector 366 SimFourScenario.node[8].udp packetSent:vector(packetBytes) ETV
attr interpolationmode none
attr source packetSent
attr title "packets sent, vector(packetBytes)"
vector 367 SimFourScenario.node[8].lo[0].lo rcvdPkFromHl:vector(packetBytes) ETV
attr interpolationmode none
attr source packetReceivedFromUpper
attr title "packets received from higher layer, vector(packetBytes)"
vector 368 SimFourScenario.node[8].lo[0].lo passedUpPk:vector(packetBytes) ETV
attr interpolationmode none
attr source packetSentToUpper
attr title "packets passed to higher layer, vector(packetBytes)"
vector 369 SimFourScenario.node[8].wlan[0].mac packetReceivedFromUpper:vector(packetBytes) ETV
attr interpolationmode none
attr title "packets received from upper layer, vector(packetBytes)"
vector 370 SimFourScenario.node[8].wlan[0].mac.dcf.channelAccess.pendingQueue packetPushed:vector(packetBytes) ETV
attr interpolationmode none
attr title "packet pushed, vector(packetBytes)"
vector 371 SimFourScenario.node[8].wlan[0].mac.dcf.channelAccess.pendingQueue queueLength:vector ETV
attr interpolationmode sample-hold
attr source "count(packetPushed) - count(packetPopped) - count(packetRemoved) - count(packetDropped)"
attr title "queue length, vector"
vector 372 SimFourScenario.node[8].wlan[0].mac.dcf.channelAccess.contention backoffPeriodGenerated:vector ETV
attr interpolationmode none
attr title "backoff periods, vector"
vector 373 SimFourScenario.node[8].wlan[0].mac.dcf.channelAccess.contention backoffActive:vector ETV
attr interpolationmode sample-hold
attr source count(backoffStarted)-count(backoffStopped)
attr title "backoff active, vector"
vector 374 SimFourScenario.node[11].wlan[0].mac.dcf packetReceivedFromPeer:vector(packetBytes) ETV
attr interpolationmode none
attr title "packets received, vector(packetBytes)"
vector 375 SimFourScenario.node[11].wlan[0].mac.dcf packetReceivedFromPeerMulticast:vector(packetBytes) ETV
attr interpolationmode none
attr source ieee80211Multicast(packetReceivedFromPeer)
attr title "packets received: multicast, vector(packetBytes)"
vector 376 SimFourScenario.node[11].wlan[0].mac.dcf packetReceivedFromPeerWithoutRetry:vector(packetBytes) ETV
attr interpolationmode none
attr source ieee80211NotRetry(packetReceivedFromPeer)
attr title "packets received: without retry, vector(packetBytes)"
vector 377 SimFourScenario.node[11].wlan[0].mac packetSentToUpper:vector(packetBytes) ETV
attr interpolationmode none
attr title "packets sent to upper layer, vector(packetBytes)"
vector 378 SimFourScenario.node[11].udp packetReceived:vector(packetBytes) ETV
attr interpolationmode none
attr source packetReceived
attr title "packets received, vector(packetBytes)"
vector 379 SimFourScenario.node[11].udp passedUpPk:vector(count) ETV
attr interpolationmode none
attr source packetSentToUpper
attr title "packets passed up, vector(count)"
vector 380 SimFourScenario.node[11].app[0] packetReceived:vector(packetBytes) ETV
attr interpolationmode none
attr source packetReceived
attr title "packets received, vector(packetBytes)"
vector 381 SimFourScenario.node[11].app[0] throughput:vector ETV
attr source throughput(packetReceived)
attr title "throughput, vector"
attr unit bps
vector 382 SimFourScenario.node[11].app[0] rcvdPkLifetime:vector ETV
attr interpolationmode none
attr source dataAge(packetReceived)
attr title "received packet lifetime, vector"
attr unit s
vector 383 SimFourScenario.node[11].app[0] packetSent:vector(packetBytes) ETV
attr interpolationmode none
attr source packetSent
attr title "packets sent, vector(packetBytes)"
vector 384 SimFourScenario.node[11].udp packetSent:vector(packetBytes) ETV
attr interpolationmode none
attr source packetSent
attr title "packets sent, vector(packetBytes)"
vector 385 SimFourScenario.node[11].lo[0].lo rcvdPkFromHl:vector(packetBytes) ETV
attr interpolationmode none
attr source packetReceivedFromUpper
attr title "packets received from higher layer, vector(packetBytes)"
vector 386 SimFourScenario.node[11].lo[0].lo passedUpPk:vector(packetBytes) ETV
attr interpolationmode none
attr source packetSentToUpper
attr title "packets passed to higher layer, vector(packetBytes)"
vector 387 SimFourScenario.node[11].wlan[0].mac packetReceivedFromUpper:vector(packetBytes) ETV
attr interpolationmode none
attr title "packets received from upper layer, vector(packetBytes)"
vector 388 SimFourScenario.node[11].wlan[0].mac.dcf.channelAccess.pendingQueue packetPushed:vector(packetBytes) ETV
attr interpolationmode none
attr title "packet pushed, vector(packetBytes)"
vector 389 SimFourScenario.node[11].wlan[0].mac.dcf.channelAccess.pendingQueue queueLength:vector ETV
attr interpolationmode sample-hold
attr source "count(packetPushed) - count(packetPopped) - count(packetRemoved) - count(packetDropped)"
attr title "queue length, vector"
vector 390 SimFourScenario.node[11].wlan[0].mac.dcf.channelAccess.contention backoffPeriodGenerated:vector ETV
attr interpolationmode none
attr title "backoff periods, vector"
vector 391 SimFourScenario.node[11].wlan[0].mac.dcf.channelAccess.contention backoffActive:vector ETV
attr interpolationmode sample-hold
attr source count(backoffStarted)-count(backoffStopped)
attr title "backoff active, vector"
vector 392 SimFourScenario.node[10].wlan[0].mac.dcf packetSentToPeer:vector(packetBytes) ETV
attr interpolationmode none
attr title "packets sent, vector(packetBytes)"
vector 393 SimFourScenario.node[10].wlan[0].mac.dcf packetSentToPeerMulticast:vector(packetBytes) ETV
attr interpolationmode none
attr source ieee80211Multicast(packetSentToPeer)
attr title "packets sent: multicast, vector(packetBytes)"
vector 394 SimFourScenario.node[10].wlan[0].mac.dcf packetSentToPeerWithoutRetry:vector(packetBytes) ETV
[...]
568	2949	52.8	0
568	2949	52.9	0
568	2949	53	0
568	2949	53.1	0
568	2949	53.2	0
568	2949	53.3	0
568	2949	53.4	0
568	2949	53.5	0
568	2949	53.6	0
568	2949	53.7	0
568	2949	53.8	0
568	2949	53.9	0
568	2949	54	0
568	2949	54.1	0
568	2949	54.2	0
568	2949	54.3	0
568	2949	54.4	0
568	2949	54.5	0
568	2949	54.6	0
568	2949	54.7	0
568	2949	54.8	0
568	2949	54.9	0
568	2949	55	0
568	2949	55.1	0
568	2949	55.2	0
568	2949	55.3	0
568	2949	55.4	0
568	2949	55.5	0
568	2949	55.6	0
568	2949	55.7	0
568	2949	55.8	0
568	2949	55.9	0
568	2949	56	0
568	2949	56.1	0
568	2949	56.2	0
568	2949	56.3	0
568	2949	56.4	0
568	2949	56.5	0
568	2949	56.6	0
568	2949	56.7	0
568	2949	56.8	0
568	2949	56.9	0
568	2949	57	0
568	2949	57.1	0
568	2949	57.2	0
568	2949	57.3	0
568	2949	57.4	0
568	2949	57.5	0
568	2949	57.6	0
568	2949	57.7	0
568	2949	57.8	0
568	2949	57.9	0
568	2949	58	0
568	2949	58.1	0
568	2949	58.2	0
568	2949	58.3	0
568	2949	58.4	0
568	2949	58.5	0
568	2949	58.6	0
568	2949	58.7	0
568	2949	58.8	0
568	2949	58.9	0
568	2949	59	0
568	2949	59.1	0
568	2949	59.2	0
568	2949	59.3	0
568	2949	59.4	0
568	2949	59.5	0
568	2949	59.6	0
568	2949	59.7	0
568	2949	59.8	0
568	2949	59.9	0
568	2949	60	0
568	2949	60.1	0
568	2949	60.2	0
568	2949	60.3	0
568	2949	60.4	0
568	2949	60.5	0
568	2949	60.6	0
568	2949	60.7	0
568	2949	60.8	0
568	2949	60.9	0
568	2949	61	0
568	2949	61.1	0
568	2949	61.2	0
568	2949	61.3	0
568	2949	61.4	0
568	2949	61.5	0
568	2949	61.6	0
568	2949	61.7	0
568	2949	61.8	0
568	2949	61.9	0
568	2949	62	0
568	2949	62.1	0
568	2949	62.2	0
568	2949	62.3	0
568	2949	62.4	0
568	2949	62.5	0
568	2949	62.6	0
568	2949	62.7	0
568	2949	62.8	0
568	2949	62.9	0
568	2949	63	0
568	2949	63.1	0
568	2949	63.2	0
568	2949	63.3	0
568	2949	63.4	0
568	2949	63.5	0
568	2949	63.6	0
568	2949	63.7	0
568	2949	63.8	0
568	2949	63.9	0
568	2949	64	0
568	2949	64.1	0
568	2949	64.2	0
568	2949	64.3	0
568	2949	64.4	0
568	2949	64.5	0
568	2949	64.6	0
568	2949	64.7	0
568	2949	64.8	0
568	2949	64.9	0
568	2949	65	0
568	2949	65.1	0
568	2949	65.2	0
568	2949	65.3	0
568	2949	65.4	0
568	2949	65.5	0
568	2949	65.6	0
568	2949	65.7	0
568	2949	65.8	0
568	2949	65.9	0
568	2949	66	0
568	2949	66.1	0
568	2949	66.2	0
568	2949	66.3	0
568	2949	66.4	0
568	2949	66.5	0
568	2949	66.6	0
568	2949	66.7	0
568	2949	66.8	0
568	2949	66.9	0
568	2949	67	0
568	2949	67.1	0
568	2949	67.2	0
568	2949	67.3	0
568	2949	67.4	0
568	2949	67.5	0
568	2949	67.6	0
568	2949	67.7	0
568	2949	67.8	0
568	2949	67.9	0
568	2949	68	0
568	2949	68.1	0
568	2949	68.2	0
568	2949	68.3	0
568	2949	68.4	0
568	2949	68.5	0
568	2949	68.6	0
568	2949	68.7	0
568	2949	68.8	0
568	2949	68.9	0
568	2949	69	0
568	2949	69.1	0
568	2949	69.2	0
568	2949	69.3	0
568	2949	69.4	0
568	2949	69.5	0
568	2949	69.6	0
568	2949	69.7	0
568	2949	69.8	0
568	2949	69.9	0
568	2949	70	0
568	2949	70.1	0
568	2949	70.2	0
568	2949	70.3	0
568	2949	70.4	0
568	2949	70.5	0
568	2949	70.6	0
568	2949	70.7	0
568	2949	70.8	0
568	2949	70.9	0
568	2949	71	0
568	2949	71.1	0
567	1592	40.000152274377	100
567	1600	40.000152274377	100
567	2219	40.001321962736	100
567	2515	40.001885283152	100
570	1592	40.000152274377	100
50	191	15	128
50	199	15	128
50	974	25	128
51	191	15	128
51	199	15	128
51	974	25	128
167	324	15.00036277058	158
167	427	15.000587636973	158
167	557	15.000928061687	158
167	1162	25.00044051512	158
167	1256	25.000663806066	158
167	1340	25.000925952171	158
167	1576	40.00015216327	158
167	1879	40.000402473712	158
167	2014	40.000625539982	158
167	2121	40.000969169864	158
167	2251	40.001322193676	158
167	2392	40.00155831804	158
167	2547	40.001885509784	158
66	206	15	158
66	739	15.001443388618	158
66	981	25	158
52	194	15	130
52	202	15	130
52	977	25	130
521	1162	25.00044051512	130
521	1256	25.000663806066	130
521	1340	25.000925952171	130
521	1576	40.00015216327	130
521	2251	40.001322193676	130
521	2392	40.00155831804	130
521	2547	40.001885509784	130
169	324	15.00036277058	158
169	427	15.000587636973	158
169	557	15.000928061687	158
169	1879	40.000402473712	158
169	2014	40.000625539982	158
169	2121	40.000969169864	158
168	324	15.00036277058	158
168	427	15.000587636973	158
168	557	15.000928061687	158
168	1879	40.000402473712	158
168	2014	40.000625539982	158
168	2121	40.000969169864	158
520	1162	25.00044051512	158
520	1256	25.000663806066	158
520	1340	25.000925952171	158
520	1576	40.00015216327	158
520	2251	40.001322193676	158
520	2392	40.00155831804	158
520	2547	40.001885509784	158
519	1162	25.00044051512	158
519	1256	25.000663806066	158
519	1340	25.000925952171	158
519	1576	40.00015216327	158
519	2251	40.001322193676	158
519	2392	40.00155831804	158
519	2547	40.001885509784	158
518	1162	25.00044051512	158
518	1256	25.000663806066	158
518	1340	25.000925952171	158
518	1576	40.00015216327	158
518	2251	40.001322193676	158
518	2392	40.00155831804	158
518	2547	40.001885509784	158
71	220	15.000152	158
71	753	15.001595388618	158
71	1003	25.000152	158
70	220	15.000152	158
70	753	15.001595388618	158
70	1003	25.000152	158
69	220	15.000152	158
69	753	15.001595388618	158
69	1003	25.000152	158
67	206	15	1
67	220	15.000152	0
67	739	15.001443388618	1
67	753	15.001595388618	0
67	981	25	1
67	1003	25.000152	0
65	206	15	12000000
65	739	15.001443388618	12000000
65	981	25	12000000
63	206	15	0
63	206	15	0
63	981	25	0
62	206	15	158
62	206	15	158
62	981	25	158
53	194	15	158
53	202	15	158
53	977	25	158
54	194	15	1
54	202	15	2
54	206	15	1
54	206	15	0
54	977	25	1
54	981	25	0
72	220	15.000152	0.000152
72	753	15.001595388618	0.001595388618
72	1003	25.000152	0.000152
64	206	15	1
64	206	15	2
64	220	15.000152	1
64	753	15.001595388618	0
64	981	25	1
64	1003	25.000152	0
56	194	15	1
56	205	15	0
56	221	15.000152	1
56	290	15.00021077058	0
56	354	15.000389842148	1
56	370	15.000435636973	0
56	426	15.000587636973	1
56	427	15.000587636973	0
56	427	15.000587636973	1
56	498	15.000776061687	0
56	556	15.000928061687	1
56	557	15.000928061687	0
56	557	15.000928061687	1
56	609	15.001102940511	0
56	659	15.001190388618	1
56	738	15.001443388618	0
56	977	25	1
56	980	25	0
55	194	15	14
55	220	15.000152	15
55	977	25	3
11	2	0.1	15
68	207	15	1
68	208	15	2
68	220	15.000152	1
68	221	15.000152	0
68	740	15.001443388618	1
68	741	15.001443388618	2
68	753	15.001595388618	1
68	754	15.001595388618	0
68	982	25	1
68	983	25	2
68	1003	25.000152	1
68	1004	25.000152	0
10	2	0.1	1
10	207	15	0
10	221	15.000152	1
10	290	15.00021077058	3
10	323	15.00036277058	2
10	354	15.000389842148	1
10	370	15.000435636973	3
10	426	15.000587636973	1
10	498	15.000776061687	3
10	556	15.000928061687	1
10	609	15.001102940511	2
10	659	15.001190388618	1
10	740	15.001443388618	0
10	754	15.001595388618	1
10	982	25	0
10	1004	25.000152	1
10	1125	25.00028851512	3
10	1161	25.00044051512	1
10	1219	25.000511806066	3
10	1255	25.000663806066	1
10	1303	25.000773952171	3
10	1339	25.000925952171	1
10	1551	40.00000016327	3
10	1575	40.00015216327	1
10	1783	40.000250473712	3
10	1878	40.000402473712	2
10	1921	40.000473539982	3
10	2013	40.000625539982	2
10	2028	40.00062583728	1
10	2058	40.000817169864	3
10	2120	40.000969169864	2
10	2165	40.000982658221	1
10	2186	40.001170193676	3
10	2250	40.001322193676	1
10	2322	40.00140631804	3
10	2391	40.00155831804	1
10	2477	40.001733509784	3
10	2546	40.001885509784	1
8	2	0.1	0
8	2	0.1	0
8	2	0.1	2
8	207	15	3
8	221	15.000152	2
8	740	15.001443388618	3
8	754	15.001595388618	2
8	982	25	3
8	1004	25.000152	2
9	2	0.1	3
57	195	15	108
57	203	15	108
57	978	25	108
57	1165	25.00044051512	108
57	1259	25.000663806066	108
57	1343	25.000925952171	108
57	1579	40.00015216327	108
57	2254	40.001322193676	108
57	2395	40.00155831804	108
57	2550	40.001885509784	108
49	189	15	108
49	197	15	108
49	972	25	108
58	195	15	1
58	203	15	2
58	978	25	3
58	1165	25.00044051512	4
58	1259	25.000663806066	5
58	1343	25.000925952171	6
58	1579	40.00015216327	7
58	2254	40.001322193676	8
58	2395	40.00155831804	9
58	2550	40.001885509784	10
61	196	15	0
61	204	15	0
61	979	25	0
61	1166	25.00044051512	0.00044051512
61	1260	25.000663806066	0.000663806066
61	1344	25.000925952171	0.000925952171
61	1580	40.00015216327	0.00015216327
61	2255	40.001322193676	0.001322193676
61	2396	40.00155831804	0.00155831804
61	2551	40.001885509784	0.001885509784
60	196	0.1	0
60	196	0.2	0
60	196	0.3	0
60	196	0.4	0
60	196	0.5	0
60	196	0.6	0
60	196	0.7	0
60	196	0.8	0
60	196	0.9	0
60	196	1	0
60	196	1.1	0
60	196	1.2	0
60	196	1.3	0
60	196	1.4	0
60	196	1.5	0
60	196	1.6	0
60	196	1.7	0
60	196	1.8	0
60	196	1.9	0
60	196	2	0
60	196	2.1	0
60	196	2.2	0
60	196	2.3	0
60	196	2.4	0
60	196	2.5	0
60	196	2.6	0
60	196	2.7	0
60	196	2.8	0
60	196	2.9	0
60	196	3	0
60	196	3.1	0
60	196	3.2	0
60	196	3.3	0
60	196	3.4	0
60	196	3.5	0
60	196	3.6	0
60	196	3.7	0
60	196	3.8	0
60	196	3.9	0
60	196	4	0
60	196	4.1	0
60	196	4.2	0
60	196	4.3	0
60	196	4.4	0
60	196	4.5	0
60	196	4.6	0
60	196	4.7	0
60	196	4.8	0
60	196	4.9	0
60	196	5	0
60	196	5.1	0
60	196	5.2	0
60	196	5.3	0
60	196	5.4	0
60	196	5.5	0
60	196	5.6	0
60	196	5.7	0
60	196	5.8	0
60	196	5.9	0
60	196	6	0
60	196	6.1	0
60	196	6.2	0
60	196	6.3	0
60	196	6.4	0
60	196	6.5	0
60	196	6.6	0
60	196	6.7	0
60	196	6.8	0
60	196	6.9	0
60	196	7	0
60	196	7.1	0
60	196	7.2	0
60	196	7.3	0
60	196	7.4	0
60	196	7.5	0
60	196	7.6	0
60	196	7.7	0
60	196	7.8	0
60	196	7.9	0
60	196	8	0
60	196	8.1	0
60	196	8.2	0
60	196	8.3	0
60	196	8.4	0
60	196	8.5	0
60	196	8.6	0
60	196	8.7	0
60	196	8.8	0
60	196	8.9	0
60	196	9	0
60	196	9.1	0
60	196	9.2	0
60	196	9.3	0
60	196	9.4	0
60	196	9.5	0
60	196	9.6	0
60	196	9.7	0
60	196	9.8	0
60	196	9.9	0
60	196	10	0
60	196	10.1	0
60	196	10.2	0
60	196	10.3	0
60	196	10.4	0
60	196	10.5	0
60	196	10.6	0
60	196	10.7	0
60	196	10.8	0
60	196	10.9	0
60	196	11	0
60	196	11.1	0
60	196	11.2	0
60	196	11.3	0
60	196	11.4	0
60	196	11.5	0
60	196	11.6	0
60	196	11.7	0
60	196	11.8	0
60	196	11.9	0
60	196	12	0
60	196	12.1	0
60	196	12.2	0
60	196	12.3	0
60	196	12.4	0
60	196	12.5	0
60	196	12.6	0
60	196	12.7	0
60	196	12.8	0
60	196	12.9	0
60	196	13	0
60	196	13.1	0
60	196	13.2	0
60	196	13.3	0
60	196	13.4	0
60	196	13.5	0
60	196	13.6	0
60	196	13.7	0
60	196	13.8	0
60	196	13.9	0
60	196	14	0
60	196	14.1	0
60	196	14.2	0
60	196	14.3	0
60	196	14.4	0
60	196	14.5	0
60	196	14.6	0
60	196	14.7	0
60	196	14.8	0
60	196	14.9	0
60	196	15	0
60	979	15.1	16000
60	979	15.2	0
60	979	15.3	0
60	979	15.4	0
60	979	15.5	0
60	979	15.6	0
60	979	15.7	0
60	979	15.8	0
60	979	15.9	0
60	979	16	0
60	979	16.1	0
60	979	16.2	0
60	979	16.3	0
60	979	16.4	0
60	979	16.5	0
60	979	16.6	0
60	979	16.7	0
60	979	16.8	0
60	979	16.9	0
60	979	17	0
60	979	17.1	0
60	979	17.2	0
60	979	17.3	0
60	979	17.4	0
60	979	17.5	0
60	979	17.6	0
60	979	17.7	0
60	979	17.8	0
60	979	17.9	0
60	979	18	0
60	979	18.1	0
60	979	18.2	0
60	979	18.3	0
60	979	18.4	0
60	979	18.5	0
60	979	18.6	0
60	979	18.7	0
60	979	18.8	0
60	979	18.9	0
60	979	19	0
60	979	19.1	0
60	979	19.2	0
60	979	19.3	0
60	979	19.4	0
60	979	19.5	0
60	979	19.6	0
60	979	19.7	0
60	979	19.8	0
60	979	19.9	0
60	979	20	0
60	979	20.1	0
60	979	20.2	0
60	979	20.3	0
60	979	20.4	0
60	979	20.5	0
60	979	20.6	0
60	979	20.7	0
60	979	20.8	0
60	979	20.9	0
60	979	21	0
60	979	21.1	0
60	979	21.2	0
60	979	21.3	0
60	979	21.4	0
60	979	21.5	0
60	979	21.6	0
60	979	21.7	0
60	979	21.8	0
60	979	21.9	0
60	979	22	0
60	979	22.1	0
60	979	22.2	0
60	979	22.3	0
60	979	22.4	0
60	979	22.5	0
60	979	22.6	0
60	979	22.7	0
60	979	22.8	0
60	979	22.9	0
60	979	23	0
60	979	23.1	0
60	979	23.2	0
60	979	23.3	0
60	979	23.4	0
60	979	23.5	0
60	979	23.6	0
60	979	23.7	0
60	979	23.8	0
60	979	23.9	0
60	979	24	0
60	979	24.1	0
60	979	24.2	0
60	979	24.3	0
60	979	24.4	0
60	979	24.5	0
60	979	24.6	0
60	979	24.7	0
60	979	24.8	0
60	979	24.9	0
60	979	25	0
60	1580	25.1	32000
60	1580	25.2	0
60	1580	25.3	0
60	1580	25.4	0
60	1580	25.5	0
60	1580	25.6	0
60	1580	25.7	0
60	1580	25.8	0
60	1580	25.9	0
60	1580	26	0
60	1580	26.1	0
60	1580	26.2	0
60	1580	26.3	0
60	1580	26.4	0
60	1580	26.5	0
60	1580	26.6	0
60	1580	26.7	0
60	1580	26.8	0
60	1580	26.9	0
60	1580	27	0
60	1580	27.1	0
60	1580	27.2	0
60	1580	27.3	0
60	1580	27.4	0
60	1580	27.5	0
60	1580	27.6	0
60	1580	27.7	0
60	1580	27.8	0
60	1580	27.9	0
60	1580	28	0
60	1580	28.1	0
60	1580	28.2	0
60	1580	28.3	0
60	1580	28.4	0
60	1580	28.5	0
60	1580	28.6	0
60	1580	28.7	0
60	1580	28.8	0
60	1580	28.9	0
60	1580	29	0
60	1580	29.1	0
60	1580	29.2	0
60	1580	29.3	0
60	1580	29.4	0
60	1580	29.5	0
60	1580	29.6	0
60	1580	29.7	0
60	1580	29.8	0
60	1580	29.9	0
60	1580	30	0
60	1580	30.1	0
60	1580	30.2	0
60	1580	30.3	0
60	1580	30.4	0
60	1580	30.5	0
60	1580	30.6	0
60	1580	30.7	0
60	1580	30.8	0
60	1580	30.9	0
60	1580	31	0
60	1580	31.1	0
60	1580	31.2	0
60	1580	31.3	0
60	1580	31.4	0
60	1580	31.5	0
60	1580	31.6	0
60	1580	31.7	0
60	1580	31.8	0
60	1580	31.9	0
60	1580	32	0
60	1580	32.1	0
60	1580	32.2	0
60	1580	32.3	0
60	1580	32.4	0
60	1580	32.5	0
60	1580	32.6	0
60	1580	32.7	0
60	1580	32.8	0
60	1580	32.9	0
60	1580	33	0
60	1580	33.1	0
60	1580	33.2	0
60	1580	33.3	0
60	1580	33.4	0
60	1580	33.5	0
60	1580	33.6	0
60	1580	33.7	0
60	1580	33.8	0
60	1580	33.9	0
60	1580	34	0
60	1580	34.1	0
60	1580	34.2	0
60	1580	34.3	0
60	1580	34.4	0
60	1580	34.5	0
60	1580	34.6	0
60	1580	34.7	0
60	1580	34.8	0
60	1580	34.9	0
60	1580	35	0
60	1580	35.1	0
60	1580	35.2	0
60	1580	35.3	0
60	1580	35.4	0
60	1580	35.5	0
60	1580	35.6	0
60	1580	35.7	0
60	1580	35.8	0
60	1580	35.9	0
60	1580	36	0
60	1580	36.1	0
60	1580	36.2	0
60	1580	36.3	0
60	1580	36.4	0
60	1580	36.5	0
60	1580	36.6	0
60	1580	36.7	0
60	1580	36.8	0
60	1580	36.9	0
60	1580	37	0
60	1580	37.1	0
60	1580	37.2	0
60	1580	37.3	0
60	1580	37.4	0
60	1580	37.5	0
60	1580	37.6	0
60	1580	37.7	0
60	1580	37.8	0
60	1580	37.9	0
60	1580	38	0
60	1580	38.1	0
60	1580	38.2	0
60	1580	38.3	0
60	1580	38.4	0
60	1580	38.5	0
60	1580	38.6	0
60	1580	38.7	0
60	1580	38.8	0
60	1580	38.9	0
60	1580	39	0
60	1580	39.1	0
60	1580	39.2	0
60	1580	39.3	0
60	1580	39.4	0
60	1580	39.5	0
60	1580	39.6	0
60	1580	39.7	0
60	1580	39.8	0
60	1580	39.9	0
60	1580	40	0
60	3050	40.1	32000
60	3050	40.2	0
60	3050	40.3	0
60	3050	40.4	0
60	3050	40.5	0
60	3050	40.6	0
60	3050	40.7	0
60	3050	40.8	0
60	3050	40.9	0
60	3050	41	0
60	3050	41.1	0
60	3050	41.2	0
60	3050	41.3	0
60	3050	41.4	0
60	3050	41.5	0
60	3050	41.6	0
60	3050	41.7	0
60	3050	41.8	0
60	3050	41.9	0
60	3050	42	0
60	3050	42.1	0
60	3050	42.2	0
60	3050	42.3	0
60	3050	42.4	0
60	3050	42.5	0
60	3050	42.6	0
60	3050	42.7	0
60	3050	42.8	0
60	3050	42.9	0
60	3050	43	0
60	3050	43.1	0
60	3050	43.2	0
60	3050	43.3	0
60	3050	43.4	0
60	3050	43.5	0
60	3050	43.6	0
60	3050	43.7	0
60	3050	43.8	0
60	3050	43.9	0
60	3050	44	0
60	3050	44.1	0
60	3050	44.2	0
60	3050	44.3	0
60	3050	44.4	0
60	3050	44.5	0
60	3050	44.6	0
60	3050	44.7	0
60	3050	44.8	0
60	3050	44.9	0
60	3050	45	0
60	3050	45.1	0
60	3050	45.2	0
60	3050	45.3	0
60	3050	45.4	0
60	3050	45.5	0
60	3050	45.6	0
60	3050	45.7	0
60	3050	45.8	0
60	3050	45.9	0
60	3050	46	0
60	3050	46.1	0
60	3050	46.2	0
60	3050	46.3	0
60	3050	46.4	0
60	3050	46.5	0
60	3050	46.6	0
60	3050	46.7	0
60	3050	46.8	0
60	3050	46.9	0
60	3050	47	0
60	3050	47.1	0
60	3050	47.2	0
60	3050	47.3	0
60	3050	47.4	0
60	3050	47.5	0
60	3050	47.6	0
60	3050	47.7	0
60	3050	47.8	0
60	3050	47.9	0
60	3050	48	0
60	3050	48.1	0
60	3050	48.2	0
60	3050	48.3	0
60	3050	48.4	0
60	3050	48.5	0
60	3050	48.6	0
60	3050	48.7	0
60	3050	48.8	0
60	3050	48.9	0
60	3050	49	0
60	3050	49.1	0
60	3050	49.2	0
60	3050	49.3	0
60	3050	49.4	0
60	3050	49.5	0
60	3050	49.6	0
60	3050	49.7	0
60	3050	49.8	0
60	3050	49.9	0
60	3050	50	0
60	3050	50.1	0
60	3050	50.2	0
60	3050	50.3	0
60	3050	50.4	0
60	3050	50.5	0
60	3050	50.6	0
60	3050	50.7	0
60	3050	50.8	0
60	3050	50.9	0
60	3050	51	0
60	3050	51.1	0
60	3050	51.2	0
60	3050	51.3	0
60	3050	51.4	0
60	3050	51.5	0
60	3050	51.6	0
60	3050	51.7	0
60	3050	51.8	0
60	3050	51.9	0
60	3050	52	0
60	3050	52.1	0
60	3050	52.2	0
60	3050	52.3	0
60	3050	52.4	0
60	3050	52.5	0
60	3050	52.6	0
60	3050	52.7	0
60	3050	52.8	0
60	3050	52.9	0
60	3050	53	0
60	3050	53.1	0
60	3050	53.2	0
60	3050	53.3	0
60	3050	53.4	0
60	3050	53.5	0
60	3050	53.6	0
60	3050	53.7	0
60	3050	53.8	0
60	3050	53.9	0
60	3050	54	0
60	3050	54.1	0
60	3050	54.2	0
60	3050	54.3	0
60	3050	54.4	0
60	3050	54.5	0
60	3050	54.6	0
60	3050	54.7	0
60	3050	54.8	0
60	3050	54.9	0
60	3050	55	0
60	3050	55.1	0
60	3050	55.2	0
60	3050	55.3	0
60	3050	55.4	0
60	3050	55.5	0
60	3050	55.6	0
60	3050	55.7	0
60	3050	55.8	0
60	3050	55.9	0
60	3050	56	0
60	3050	56.1	0
60	3050	56.2	0
60	3050	56.3	0
60	3050	56.4	0
60	3050	56.5	0
60	3050	56.6	0
60	3050	56.7	0
60	3050	56.8	0
60	3050	56.9	0
60	3050	57	0
60	3050	57.1	0
60	3050	57.2	0
60	3050	57.3	0
60	3050	57.4	0
60	3050	57.5	0
60	3050	57.6	0
60	3050	57.7	0
60	3050	57.8	0
60	3050	57.9	0
60	3050	58	0
60	3050	58.1	0
60	3050	58.2	0
60	3050	58.3	0
60	3050	58.4	0
60	3050	58.5	0
60	3050	58.6	0
60	3050	58.7	0
60	3050	58.8	0
60	3050	58.9	0
60	3050	59	0
60	3050	59.1	0
60	3050	59.2	0
60	3050	59.3	0
60	3050	59.4	0
60	3050	59.5	0
60	3050	59.6	0
60	3050	59.7	0
60	3050	59.8	0
60	3050	59.9	0
60	3050	60	0
60	3050	60.1	0
60	3050	60.2	0
60	3050	60.3	0
60	3050	60.4	0
60	3050	60.5	0
60	3050	60.6	0
60	3050	60.7	0
60	3050	60.8	0
60	3050	60.9	0
60	3050	61	0
60	3050	61.1	0
60	3050	61.2	0
60	3050	61.3	0
60	3050	61.4	0
60	3050	61.5	0
60	3050	61.6	0
60	3050	61.7	0
60	3050	61.8	0
60	3050	61.9	0
60	3050	62	0
60	3050	62.1	0
60	3050	62.2	0
60	3050	62.3	0
60	3050	62.4	0
60	3050	62.5	0
60	3050	62.6	0
60	3050	62.7	0
60	3050	62.8	0
60	3050	62.9	0
60	3050	63	0
60	3050	63.1	0
60	3050	63.2	0
60	3050	63.3	0
60	3050	63.4	0
60	3050	63.5	0
60	3050	63.6	0
60	3050	63.7	0
60	3050	63.8	0
60	3050	63.9	0
60	3050	64	0
60	3050	64.1	0
60	3050	64.2	0
60	3050	64.3	0
60	3050	64.4	0
60	3050	64.5	0
60	3050	64.6	0
60	3050	64.7	0
60	3050	64.8	0
60	3050	64.9	0
60	3050	65	0
60	3050	65.1	0
60	3050	65.2	0
60	3050	65.3	0
60	3050	65.4	0
60	3050	65.5	0
60	3050	65.6	0
60	3050	65.7	0
60	3050	65.8	0
60	3050	65.9	0
60	3050	66	0
60	3050	66.1	0
60	3050	66.2	0
60	3050	66.3	0
60	3050	66.4	0
60	3050	66.5	0
60	3050	66.6	0
60	3050	66.7	0
60	3050	66.8	0
60	3050	66.9	0
60	3050	67	0
60	3050	67.1	0
60	3050	67.2	0
60	3050	67.3	0
60	3050	67.4	0
60	3050	67.5	0
60	3050	67.6	0
60	3050	67.7	0
60	3050	67.8	0
60	3050	67.9	0
60	3050	68	0
60	3050	68.1	0
60	3050	68.2	0
60	3050	68.3	0
60	3050	68.4	0
60	3050	68.5	0
60	3050	68.6	0
60	3050	68.7	0
60	3050	68.8	0
60	3050	68.9	0
60	3050	69	0
60	3050	69.1	0
60	3050	69.2	0
60	3050	69.3	0
60	3050	69.4	0
60	3050	69.5	0
60	3050	69.6	0
60	3050	69.7	0
60	3050	69.8	0
60	3050	69.9	0
60	3050	70	0
60	3050	70.1	0
60	3050	70.2	0
60	3050	70.3	0
60	3050	70.4	0
60	3050	70.5	0
60	3050	70.6	0
60	3050	70.7	0
60	3050	70.8	0
60	3050	70.9	0
60	3050	71	0
60	3050	71.1	0
60	3050	71.2	0
60	3050	71.3	0
60	3050	71.4	0
60	3050	71.5	0
60	3050	71.6	0
60	3050	71.7	0
60	3050	71.8	0
60	3050	71.9	0
60	3050	72	0
60	3050	72.1	0
60	3050	72.2	0
60	3050	72.3	0
60	3050	72.4	0
60	3050	72.5	0
60	3050	72.6	0
60	3050	72.7	0
60	3050	72.8	0
60	3050	72.9	0
60	3050	73	0
60	3050	73.1	0
60	3050	73.2	0
60	3050	73.3	0
60	3050	73.4	0
60	3050	73.5	0
60	3050	73.6	0
60	3050	73.7	0
60	3050	73.8	0
60	3050	73.9	0
60	3050	74	0
60	3050	74.1	0
60	3050	74.2	0
60	3050	74.3	0
60	3050	74.4	0
60	3050	74.5	0
60	3050	74.6	0
60	3050	74.7	0
60	3050	74.8	0
60	3050	74.9	0
60	3050	75	0
60	3050	75.1	0
60	3050	75.2	0
60	3050	75.3	0
60	3050	75.4	0
60	3050	75.5	0
60	3050	75.6	0
60	3050	75.7	0
60	3050	75.8	0
60	3050	75.9	0
60	3050	76	0
60	3050	76.1	0
60	3050	76.2	0
60	3050	76.3	0
60	3050	76.4	0
60	3050	76.5	0
60	3050	76.6	0
60	3050	76.7	0
60	3050	76.8	0
60	3050	76.9	0
60	3050	77	0
60	3050	77.1	0
60	3050	77.2	0
60	3050	77.3	0
60	3050	77.4	0
60	3050	77.5	0
60	3050	77.6	0
60	3050	77.7	0
60	3050	77.8	0
60	3050	77.9	0
60	3050	78	0
60	3050	78.1	0
60	3050	78.2	0
60	3050	78.3	0
60	3050	78.4	0
60	3050	78.5	0
60	3050	78.6	0
60	3050	78.7	0
60	3050	78.8	0
60	3050	78.9	0
60	3050	79	0
60	3050	79.1	0
60	3050	79.2	0
60	3050	79.3	0
60	3050	79.4	0
60	3050	79.5	0
60	3050	79.6	0
60	3050	79.7	0
60	3050	79.8	0
60	3050	79.9	0
60	3050	80	0
60	3050	80.1	0
60	3050	80.2	0
60	3050	80.3	0
60	3050	80.4	0
60	3050	80.5	0
60	3050	80.6	0
60	3050	80.7	0
60	3050	80.8	0
60	3050	80.9	0
60	3050	81	0
60	3050	81.1	0
59	196	15	100
59	204	15	100
59	979	25	100
59	1166	25.00044051512	100
59	1260	25.000663806066	100
59	1344	25.000925952171	100
59	1580	40.00015216327	100
59	2255	40.001322193676	100
59	2396	40.00155831804	100
59	2551	40.001885509784	100
48	187	15	100
48	196	15	100
48	970	25	100
